*
*
*
*                       LINUX           Tue Dec 10 05:53:19 2019
*
*
*
*  PROGRAM  advgen
*
*  Name           : advgen - Quantus QRC - (64-bit)
*  Version        : 17.1.2-s041
*  Build Date     : Wed Aug 23 16:57:50 PDT 2017
*
*  HSPICE LIBRARY
*
*!LENGTH_UNITS METERS
*
*
*
*
.SUBCKT BGR_R8 VSS in out
*
*
*  caps2d version: 10
*
*
*       CANONICAL RESISTOR AND CAP/DIODE CARDS
*
RavD87_1	in#2	out#2	 3998.7585	rtot="****" lstrip=2.8545e-05
+ $SUB=VSS#2 
*
*       PARASITIC RESISTOR AND CAP/DIODE CARDS
*
Rd1	in#1	in	    1.9356	$MET1	$X=0.0585 $Y=-2.22
Rd2	VSS	VSS#1	    0.1706	$MET1	$X=1.9455 $Y=-4.845
Rd4	VSS#1	VSS#2	    7.5000	$MET1	$X=1.215 $Y=-4.83
Rd5	VSS#2	VSS#1	    7.5000	$MET1	$X=1.215 $Y=-4.83
Rd6	out	out#1	8.357E-02	$MET1	$X=31.211 $Y=-2.22
Re1	in#2	in#1	    1.2500	$POLY1	$X=1 $Y=-2.22
Re2	out#1	out#2	    3.1250	$POLY1	$X=29.985 $Y=-2.22
*
*       CAPACITOR CARDS
*
*
C1	in	VSS#2	3.38512E-16	$X=-0.6835 $Y=-2.219
C2	out	VSS#2	3.79771E-16	$X=32.0815 $Y=-2.219
C3	out#2	VSS#2	1.30672E-16	$X=29.818 $Y=-2.22
C4	in#2	VSS#2	1.25965E-16	$X=1.165 $Y=-2.22
C5	VSS#1	in#2	4.92294E-18	$X=1.2275 $Y=-2.8905
C6	out#1	VSS#2	3.48151E-16	$X=30.31 $Y=-2.219
C7	in#1	VSS#2	3.11343E-16	$X=0.735 $Y=-2.219
C8	VSS#1	in#1	1.84642E-17	$X=1.2835 $Y=-4.355
*
*
.ENDS BGR_R8
*
