*
*
*
*                       LINUX           Sun Dec  8 21:08:17 2019
*
*
*
*  PROGRAM  advgen
*
*  Name           : advgen - Quantus QRC - (64-bit)
*  Version        : 17.1.2-s041
*  Build Date     : Wed Aug 23 16:57:50 PDT 2017
*
*  HSPICE LIBRARY
*
*!LENGTH_UNITS METERS
*
*
*

*
.SUBCKT COMP VDD VSS CLK INN INP OUT
*
*
*  caps2d version: 10
*
*
*       TRANSISTOR CARDS
*
*
MavD43_1	avC8#13	OUT#2	VSS#9	VSS#21	ne#20ivpcell#20PRIMLIB
+ L=1.8e-07	W=4.2e-07
+ AD=2.016e-13	AS=2.016e-13	PD=1.8e-06	PS=1.8e-06
+ NRD=4.128E-01	NRS=4.128E-01	wtot=4.2e-07
MavD43_2	OUT#8	avC8#6	VSS#7	VSS#21	ne#20ivpcell#20PRIMLIB
+ L=1.8e-07	W=4.2e-07
+ AD=2.016e-13	AS=2.016e-13	PD=1.8e-06	PS=1.8e-06
+ NRD=4.128E-01	NRS=4.128E-01	wtot=4.2e-07
MavD43_3	avC8#2	avC7#8	VSS#19	VSS#21	ne#20ivpcell#20PRIMLIB
+ L=1.8e-07	W=2.2e-07
+ AD=1.984e-13	AS=1.984e-13	PD=1.88e-06	PS=1.88e-06
+ NRD=8.047E-01	NRS=8.047E-01	wtot=2.2e-07
MavD43_4	OUT#4	avC10#8	VSS#1	VSS#21	ne#20ivpcell#20PRIMLIB
+ L=1.8e-07	W=2.2e-07
+ AD=1.984e-13	AS=1.984e-13	PD=1.88e-06	PS=1.88e-06
+ NRD=8.047E-01	NRS=8.047E-01	wtot=2.2e-07
MavD43_5	avC12	CLK#15	VSS#17	VSS#21	ne#20ivpcell#20PRIMLIB
+ L=1.8e-07	W=2.2e-07
+ AD=1.984e-13	AS=1.984e-13	PD=1.88e-06	PS=1.88e-06
+ NRD=8.047E-01	NRS=8.047E-01	wtot=2.2e-07
MavD43_6	avC7#5	avC9#4	VSS#25	VSS#21	ne#20ivpcell#20PRIMLIB
+ L=1.8e-07	W=4.2e-07
+ AD=2.016e-13	AS=2.016e-13	PD=1.8e-06	PS=1.8e-06
+ NRD=4.128E-01	NRS=4.128E-01	wtot=4.2e-07
MavD43_7	avC10#5	avC11#17	VSS#13	VSS#21
+ ne#20ivpcell#20PRIMLIB	L=1.8e-07	W=4.2e-07
+ AD=2.016e-13	AS=2.016e-13	PD=1.8e-06	PS=1.8e-06
+ NRD=4.128E-01	NRS=4.128E-01	wtot=4.2e-07
MavD43_8	avC14#8	INN#1	avC12#8	VSS#21
+ ne#20ivpcell#20PRIMLIB	L=1.8e-07	W=2.2e-07
+ AD=1.984e-13	AS=1.984e-13	PD=1.88e-06	PS=1.88e-06
+ NRD=8.047E-01	NRS=8.047E-01	wtot=2.2e-07
MavD43_9	avC13#2	INP#2	avC12#6	VSS#21
+ ne#20ivpcell#20PRIMLIB	L=1.8e-07	W=2.2e-07
+ AD=1.984e-13	AS=1.984e-13	PD=1.88e-06	PS=1.88e-06
+ NRD=8.047E-01	NRS=8.047E-01	wtot=2.2e-07
MavD43_10	avC11#11	avC9#17	avC14#5	VSS#21
+ ne#20ivpcell#20PRIMLIB	L=1.8e-07	W=2.2e-07
+ AD=1.984e-13	AS=1.984e-13	PD=1.88e-06	PS=1.88e-06
+ NRD=8.047E-01	NRS=8.047E-01	wtot=2.2e-07
MavD43_11	avC9#6	avC11#3	avC13#4	VSS#21
+ ne#20ivpcell#20PRIMLIB	L=1.8e-07	W=2.2e-07
+ AD=1.984e-13	AS=1.984e-13	PD=1.88e-06	PS=1.88e-06
+ NRD=8.047E-01	NRS=8.047E-01	wtot=2.2e-07
MavD45_1	avC13#8	CLK#12	VDD#34	VDD#11	pe#20ivpcell#20PRIMLIB
+ L=1.8e-07	W=2.2e-07
+ AD=1.984e-13	AS=1.984e-13	PD=1.88e-06	PS=1.88e-06
+ NRD=8.047E-01	NRS=8.047E-01	wtot=2.2e-07
MavD45_2	avC7#2	avC9#3	VDD#37	VDD#11	pe#20ivpcell#20PRIMLIB
+ L=1.8e-07	W=7.2e-07
+ AD=3.456e-13	AS=3.456e-13	PD=2.4e-06	PS=2.4e-06
+ NRD=2.848E-01	NRS=2.848E-01	wtot=7.2e-07
MavD45_3	avC9#14	CLK#16	VDD#30	VDD#11	pe#20ivpcell#20PRIMLIB
+ L=1.8e-07	W=2.2e-07
+ AD=1.984e-13	AS=1.984e-13	PD=1.88e-06	PS=1.88e-06
+ NRD=8.047E-01	NRS=8.047E-01	wtot=2.2e-07
MavD45_4	avC9#12	avC11#2	VDD#27	VDD#11
+ pe#20ivpcell#20PRIMLIB	L=1.8e-07	W=2.2e-07
+ AD=1.984e-13	AS=1.984e-13	PD=1.88e-06	PS=1.88e-06
+ NRD=8.047E-01	NRS=8.047E-01	wtot=2.2e-07
MavD45_5	avC11#6	avC9#15	VDD#24	VDD#11
+ pe#20ivpcell#20PRIMLIB	L=1.8e-07	W=2.2e-07
+ AD=1.984e-13	AS=1.984e-13	PD=1.88e-06	PS=1.88e-06
+ NRD=8.047E-01	NRS=8.047E-01	wtot=2.2e-07
MavD45_6	avC11#19	CLK#13	VDD#21	VDD#11	pe#20ivpcell#20PRIMLIB
+ L=1.8e-07	W=2.2e-07
+ AD=1.984e-13	AS=1.984e-13	PD=1.88e-06	PS=1.88e-06
+ NRD=8.047E-01	NRS=8.047E-01	wtot=2.2e-07
MavD45_7	avC10#2	avC11#15	VDD#3	VDD#11
+ pe#20ivpcell#20PRIMLIB	L=1.8e-07	W=7.2e-07
+ AD=3.456e-13	AS=3.456e-13	PD=2.4e-06	PS=2.4e-06
+ NRD=2.848E-01	NRS=2.848E-01	wtot=7.2e-07
MavD45_8	avC14	CLK#8	VDD#20	VDD#11	pe#20ivpcell#20PRIMLIB
+ L=1.8e-07	W=2.2e-07
+ AD=1.984e-13	AS=1.984e-13	PD=1.88e-06	PS=1.88e-06
+ NRD=8.047E-01	NRS=8.047E-01	wtot=2.2e-07
MavD45_9	OUT#13	avC8#14	VDD#9	VDD#11	pe#20ivpcell#20PRIMLIB
+ L=1.8e-07	W=7.2e-07
+ AD=3.456e-13	AS=3.456e-13	PD=2.4e-06	PS=2.4e-06
+ NRD=2.848E-01	NRS=2.848E-01	wtot=7.2e-07
MavD45_10	avC8#9	OUT#11	VDD#5	VDD#11	pe#20ivpcell#20PRIMLIB
+ L=1.8e-07	W=7.2e-07
+ AD=3.456e-13	AS=3.456e-13	PD=2.4e-06	PS=2.4e-06
+ NRD=2.848E-01	NRS=2.848E-01	wtot=7.2e-07
*
*
*       RESISTOR AND CAP/DIODE CARDS
*
Rc1	avC9#5	avC9#2	    5.5008	$MET2	$X=6.245 $Y=-4.252
Rc2	avC8	avC8#7	    6.4964	$MET2	$X=6.795 $Y=-16.067
Rc3	avC11#8	avC11#14	    0.2729	$MET2
+ $X=11.945 $Y=-2.2295
Rc4	avC11#14	avC11#13	    0.3920	$MET2
+ $X=11.945 $Y=-3.667
Rc5	avC11#8	avC11#4	    0.2366	$MET2
+ $X=11.945 $Y=-1.22
Rc6	VDD#1	VDD#4	    5.6556	$MET2	$X=14.2 $Y=-4.008
Rc7	OUT#15	OUT#6	    5.6979	$MET2	$X=16.8955 $Y=-12.12
Rd1	avC9	avC9#2	   12.0000	$MET1	$X=4.665 $Y=-4.58
Rd3	avC7	avC7#4	    0.5655	$MET1	$X=5.03 $Y=-7.7545
Rd5	avC7#4	avC7#7	    0.3958	$MET1	$X=5.03 $Y=-9.749
Rd6	avC7#2	avC7	    7.5000	$MET1	$X=5.03 $Y=-6.58
Rd7	avC7#5	avC7#4	    7.5000	$MET1	$X=5.03 $Y=-8.93
Rd9	avC8	avC8#3	    4.9030	$MET1	$X=5.958 $Y=-12.095
Rd11	avC8#2	avC8#3	    7.5000	$MET1	$X=5.12 $Y=-12.095
Rd12	CLK	CLK#3	5.974E-03	$MET1	$X=7.34 $Y=-8.87
Rd14	avC13	avC13#5	    0.3853	$MET1	$X=8.135 $Y=-5.3505
Rd16	avC13#5	avC13#7	    1.7071	$MET1
+ $X=8.135 $Y=-4.1325
Rd17	avC13#7	avC13#8	    7.5000	$MET1
+ $X=3.615 $Y=-1.64
Rd18	avC13#2	avC13	    7.5000	$MET1	$X=8.135 $Y=-6.155
Rd19	avC13#4	avC13#5	    7.5000	$MET1
+ $X=8.155 $Y=-4.545
Rd20	INP	INP#1	7.700E-03	$MET1	$X=7.945 $Y=-6.895
Rd22	avC9#7	avC9#9	    0.4942	$MET1	$X=9.775 $Y=-4.088
Rd23	avC9#9	avC9#10	    0.2987	$MET1	$X=9.408 $Y=-2.635
Rd24	avC9#10	avC9#5	    0.6227	$MET1	$X=7.55 $Y=-2.64
Rd25	avC9#10	avC9#11	    0.2062	$MET1
+ $X=8.865 $Y=-2.1375
Rd26	avC9#11	avC9#12	    7.5000	$MET1
+ $X=8.865 $Y=-1.64
Rd27	avC9#5	avC9#13	    0.2541	$MET1	$X=6.235 $Y=-2.14
Rd28	avC9#13	avC9#14	    7.5000	$MET1
+ $X=6.235 $Y=-1.64
Rd29	avC9#6	avC9#7	    7.5000	$MET1	$X=8.955 $Y=-4.545
Rd31	INN#3	INN#2	3.651E-03	$MET1	$X=10.74 $Y=-7.12
Rd32	INN	INN#4	3.651E-03	$MET1	$X=10.825 $Y=-7.161
Rd33	INN#3	INN#4	2.045E-02	$MET1	$X=10.7825 $Y=-7.1475
Rd35	avC12#2	avC12#4	    0.9649	$MET1
+ $X=10.588 $Y=-8.165
Rd36	avC12#4	avC12#5	    0.7150	$MET1
+ $X=8.2 $Y=-7.475
Rd37	avC12#5	avC12#6	    7.5000	$MET1
+ $X=7.335 $Y=-6.155
Rd38	avC12#4	avC12#7	    0.4708	$MET1
+ $X=9.19 $Y=-6.98
Rd39	avC12#7	avC12#8	    7.5000	$MET1
+ $X=10.34 $Y=-6.485
Rd40	avC12	avC12#2	    7.5000	$MET1	$X=10.475 $Y=-9.345
Rd41	avC11	avC11#4	    4.5000	$MET1	$X=11.945 $Y=-0.8
Rd43	avC11#5	avC11#8	    4.5000	$MET1
+ $X=11.945 $Y=-1.64
Rd44	avC11#6	avC11#5	    7.5000	$MET1
+ $X=11.945 $Y=-1.64
Rd45	avC11#9	avC11#10	    8.3799	$MET1
+ $X=11.945 $Y=-6.373
Rd47	avC11#10	avC11#13	    4.5068	$MET1
+ $X=11.945 $Y=-4.52
Rd48	avC11#11	avC11#10	    7.5000	$MET1
+ $X=11.945 $Y=-4.545
Rd49	VDD#1	VDD#2	    4.5385	$MET1	$X=14.3 $Y=-6.45
Rd50	VDD#2	VDD#3	    7.5000	$MET1	$X=14.3 $Y=-6.54
Rd51	avC11#14	avC11#18	    5.4840	$MET1
+ $X=13.902 $Y=-2.82
Rd52	avC11#18	avC11#19	    7.5000	$MET1
+ $X=15.01 $Y=-1.64
Rd54	avC10	avC10#4	    0.5655	$MET1	$X=15.02 $Y=-7.7145
Rd56	avC10#4	avC10#7	    7.9752	$MET1
+ $X=15.02 $Y=-9.8995
Rd57	avC10#2	avC10	    7.5000	$MET1	$X=15.02 $Y=-6.54
Rd58	avC10#5	avC10#4	    7.5000	$MET1
+ $X=15.02 $Y=-8.89
Rd60	OUT#3	OUT#6	2.527E-02	$MET1	$X=15.02 $Y=-12.0775
Rd61	OUT#6	OUT#7	    0.2938	$MET1	$X=15.02 $Y=-12.717
Rd62	OUT#7	OUT	    0.4075	$MET1	$X=13.988 $Y=-13.315
Rd63	OUT	OUT#1	    0.1600	$MET1	$X=12.9375 $Y=-13.315
Rd64	OUT#1	OUT#9	    0.5467	$MET1	$X=11.373 $Y=-13.315
Rd66	OUT#4	OUT#3	    7.5000	$MET1	$X=15.02 $Y=-12.015
Rd67	OUT#8	OUT#9	    7.5000	$MET1	$X=10.225 $Y=-13.235
Rd70	VSS#2	VSS#4	    0.3387	$MET1	$X=14.22 $Y=-11.3005
Rd71	VSS#4	VSS#5	    1.0269	$MET1	$X=11.9475 $Y=-10.585
Rd72	VSS#5	VSS#6	    0.6099	$MET1	$X=9.675 $Y=-11.1325
Rd74	VSS#6	VSS#10	    1.1253	$MET1	$X=9.505 $Y=-15.5975
Rd76	VSS#10	VSS#12	    0.4716	$MET1	$X=9.505 $Y=-18.9195
Rd77	VSS#4	VSS#14	    0.3970	$MET1	$X=14.22 $Y=-9.7375
Rd79	VSS#5	VSS#16	    0.2930	$MET1	$X=9.675 $Y=-9.965
Rd80	VSS#16	VSS#17	    7.5000	$MET1	$X=9.675 $Y=-9.345
Rd81	VSS#6	VSS#18	    1.4821	$MET1	$X=6.8975 $Y=-13.26
Rd83	VSS#12	VSS#22	    0.3983	$MET1	$X=9.5275 $Y=-20.035
Rd84	VSS#22	VSS#21	    0.4412	$MET1	$X=6.5275 $Y=-20.035
Rd85	VSS#12	VSS	    0.2811	$MET1	$X=9.5275 $Y=-20.035
Rd86	VSS	VSS#23	    0.2961	$MET1	$X=13.875 $Y=-20.035
Rd87	VSS#23	VSS#21	    0.6250	$MET1	$X=13.875 $Y=-20.035
Rd88	VSS#18	VSS#24	    0.7603	$MET1	$X=4.31 $Y=-10.5125
Rd89	VSS#24	VSS#25	    7.5000	$MET1	$X=4.31 $Y=-8.93
Rd90	VSS#1	VSS#2	    7.5000	$MET1	$X=14.22 $Y=-12.015
Rd91	VSS#7	VSS#6	    7.5000	$MET1	$X=9.505 $Y=-13.235
Rd92	VSS#9	VSS#10	    7.5000	$MET1	$X=9.505 $Y=-17.935
Rd93	VSS#13	VSS#14	    7.5000	$MET1	$X=14.3 $Y=-8.89
Rd94	VSS#19	VSS#18	    7.5000	$MET1	$X=4.32 $Y=-12.095
Rd95	VSS#21	VSS#22	    0.4412	$MET1	$X=6.5275 $Y=-20.035
Rd96	VSS#21	VSS#23	    0.6250	$MET1	$X=13.875 $Y=-20.035
Rd98	avC14#2	avC14#4	    2.2367	$MET1
+ $X=15.0255 $Y=-3.615
Rd100	avC14#4	avC14#7	    0.4662	$MET1
+ $X=11.14 $Y=-5.515
Rd101	avC14#7	avC14#8	    7.5000	$MET1
+ $X=11.14 $Y=-6.485
Rd102	avC14	avC14#2	    7.5000	$MET1	$X=17.86 $Y=-1.64
Rd103	avC14#5	avC14#4	    7.5000	$MET1
+ $X=11.145 $Y=-4.545
Rd105	OUT#12	OUT#15	    4.5505	$MET1	$X=18.025 $Y=-11
Rd106	OUT#13	OUT#12	    7.5000	$MET1	$X=18.02 $Y=-10.885
Rd107	avC8#8	avC8#10	    8.1328	$MET1	$X=18.06 $Y=-14.2595
Rd109	avC8#10	avC8#7	    2.1520	$MET1	$X=14.6305 $Y=-16.88
Rd110	avC8#7	avC8#5	    0.6062	$MET1	$X=10.225 $Y=-15.615
Rd111	avC8#7	avC8#12	    0.2306	$MET1	$X=10.225 $Y=-17.4425
Rd112	avC8#12	avC8#13	    7.5000	$MET1
+ $X=10.225 $Y=-17.935
Rd113	avC8#9	avC8#10	    7.5000	$MET1	$X=18.06 $Y=-15.585
Rd115	VDD#6	VDD#8	    1.1235	$MET1	$X=17.34 $Y=-13.3105
Rd117	VDD#8	VDD#12	    3.3926	$MET1	$X=17.3 $Y=-10.21
Rd121	VDD#15	VDD#12	    0.5310	$MET1	$X=11.095 $Y=0.995
Rd122	VDD#12	VDD#17	    0.6638	$MET1	$X=11.095 $Y=0.995
Rd124	VDD#12	VDD	    0.9685	$MET1	$X=11.095 $Y=0.995
Rd125	VDD#12	VDD#19	    0.6004	$MET1	$X=17.06 $Y=-0.3875
Rd126	VDD#19	VDD#20	    7.5000	$MET1	$X=17.06 $Y=-1.64
Rd127	VDD#12	VDD#4	    0.5986	$MET1	$X=14.195 $Y=-0.3775
Rd130	VDD#12	VDD#25	    0.6004	$MET1	$X=11.145 $Y=-0.3875
Rd132	VDD#12	VDD#28	    0.6004	$MET1	$X=8.065 $Y=-0.3875
Rd134	VDD#12	VDD#31	    0.6004	$MET1	$X=5.435 $Y=-0.3875
Rd136	VDD#12	VDD#33	    0.6297	$MET1	$X=2.815 $Y=-0.3875
Rd138	VDD#33	VDD#36	    1.4933	$MET1	$X=2.83 $Y=-4.11
Rd139	VDD#36	VDD#37	    7.5000	$MET1	$X=4.31 $Y=-6.58
Rd140	VDD#5	VDD#6	    7.5000	$MET1	$X=17.34 $Y=-15.585
Rd141	VDD#9	VDD#8	    7.5000	$MET1	$X=17.3 $Y=-10.885
Rd142	VDD#11	VDD#12	    3.7500	$MET1	$X=20.095 $Y=0.995
Rd143	VDD#11	VDD#12	    3.7500	$MET1	$X=20.095 $Y=0.995
Rd144	VDD#11	VDD#15	    0.4167	$MET1	$X=15.095 $Y=0.995
Rd145	VDD#11	VDD#15	    0.4167	$MET1	$X=15.095 $Y=0.995
Rd146	VDD#11	VDD#17	    0.4167	$MET1	$X=6.095 $Y=0.995
Rd147	VDD#11	VDD#17	    0.4167	$MET1	$X=6.095 $Y=0.995
Rd148	VDD#21	VDD#4	    7.5000	$MET1	$X=14.21 $Y=-1.64
Rd149	VDD#24	VDD#25	    7.5000	$MET1	$X=11.145 $Y=-1.64
Rd150	VDD#27	VDD#28	    7.5000	$MET1	$X=8.065 $Y=-1.64
Rd151	VDD#30	VDD#31	    7.5000	$MET1	$X=5.435 $Y=-1.64
Rd152	VDD#34	VDD#33	    7.5000	$MET1	$X=2.815 $Y=-1.64
Re1	avC9#3	avC9	   87.8438	$POLY1	$X=4.67 $Y=-5.6845
Re2	avC9#3	avC9#4	  110.1562	$POLY1	$X=4.67 $Y=-7.7545
Re3	avC7#8	avC7#7	   78.5772	$POLY1	$X=4.72 $Y=-11.4195
Re4	INP#1	INP#2	   39.9866	$POLY1	$X=7.735 $Y=-6.421
Re5	avC8#5	avC8#6	   62.5125	$POLY1	$X=10.18 $Y=-13.975
Re6	INN#1	INN#2	   31.3594	$POLY1	$X=10.74 $Y=-6.698
Re7	avC9#15	avC9#16	   70.0254	$POLY1
+ $X=11.545 $Y=-2.3505
Re8	avC9#16	avC9#9	   81.1258	$POLY1	$X=10.72 $Y=-3.15
Re9	avC9#16	avC9#17	   64.6348	$POLY1
+ $X=11.545 $Y=-3.891
Re10	avC11	avC11#2	  207.8674	$POLY1	$X=10.145 $Y=-0.795
Re11	avC11#2	avC11#3	  138.5666	$POLY1
+ $X=8.555 $Y=-3.182
Re12	OUT#1	OUT#2	  375.4031	$POLY1	$X=12.52 $Y=-15.905
Re13	avC11#15	avC11#16	   59.2442	$POLY1
+ $X=14.66 $Y=-7.1355
Re14	avC11#16	avC11#9	   80.1768	$POLY1
+ $X=13.79 $Y=-7.82
Re15	avC11#16	avC11#17	   49.4004	$POLY1
+ $X=14.66 $Y=-8.3985
Re16	avC10#7	avC10#8	   56.8759	$POLY1
+ $X=14.975 $Y=-11.245
Re17	CLK#8	CLK#9	  105.1723	$POLY1	$X=17.1995 $Y=-2.6
Re18	CLK#9	CLK#7	  107.4695	$POLY1	$X=16.07 $Y=-3.5375
Re19	CLK#7	CLK#4	  245.4145	$POLY1	$X=12.72 $Y=-5.37
Re20	CLK#4	CLK#10	  155.1024	$POLY1	$X=7.4825 $Y=-5.37
Re21	CLK#10	CLK#11	  127.4765	$POLY1	$X=5.855 $Y=-4.35
Re22	CLK#11	CLK#12	  161.0852	$POLY1	$X=4.525 $Y=-2.62
Re23	CLK#9	CLK#13	  108.5769	$POLY1	$X=15.3375 $Y=-2.6
Re24	CLK#10	CLK#1	   28.3440	$POLY1	$X=5.855 $Y=-5.9625
Re25	CLK#1	CLK#14	  128.4519	$POLY1	$X=5.855 $Y=-8.335
Re26	CLK#14	CLK#15	  139.1978	$POLY1	$X=8.8125 $Y=-8.87
Re27	CLK#11	CLK#16	   45.1817	$POLY1	$X=5.835 $Y=-2.086
Re28	CLK#3	CLK#14	    7.5000	$POLY1	$X=7.34 $Y=-8.87
Re29	OUT#11	OUT#7	  227.0437	$POLY1	$X=16.7745 $Y=-14.12
Re30	avC8#8	avC8#14	  101.7203	$POLY1	$X=18.08 $Y=-12.365
*
*       CAP/DIODE CARDS
*
*
DavD157_1	VSS#21	VDD#11	p_dnw#20auLvs#20PRIMLIB	2.58372e-10
+ 0.00010248 	w=0 perimeter=0.00010248 l=0
*
*
*       CAPACITOR CARDS
*
*
C1	avC9#3	VDD#11	8.014E-17	$X=4.679 $Y=-6.711
C2	avC9#9	VSS#21	4.12828E-17	$X=10.063 $Y=-3.214
C3	avC12#4	INP#1	1.09546E-16	$X=8.198 $Y=-6.935
C4	OUT#2	VSS#21	2.39367E-16	$X=11.1915 $Y=-18.373
C5	avC14	VDD#11	2.09677E-16	$X=17.065 $Y=-2.614
C6	avC11#13	avC9#6	7.8384E-18	$X=10.177 $Y=-4.6305
C7	avC11#9	avC10	4.81621E-18	$X=14.247 $Y=-7.1195
C8	avC13#7	CLK#12	6.96657E-17	$X=3.306 $Y=-2.1635
C9	avC11#14	avC14#4	1.87222E-16	$X=11.969 $Y=-3.3485
C10	avC14#4	avC11#6	2.57605E-18	$X=11.8865 $Y=-1.864
C11	avC9#10	VDD#11	6.0794E-17	$X=8.871 $Y=-2.4695
C12	avC13#4	avC9#14	2.57605E-18	$X=6.61 $Y=-2.2685
C13	VSS#7	avC8#6	2.57788E-17	$X=9.878 $Y=-13.258
C14	CLK#10	VDD#11	1.8948E-16	$X=6.883 $Y=-5.356
C15	VDD#33	CLK#12	3.26676E-17	$X=3.1315 $Y=-2.1215
C16	INP#1	VSS#21	9.05713E-17	$X=7.9105 $Y=-6.8215
C17	CLK#10	VSS#21	8.19317E-17	$X=6.87 $Y=-5.3705
C18	CLK#12	VDD#11	1.40468E-16	$X=3.2265 $Y=-2.0085
C19	avC13#7	avC9#5	2.34238E-17	$X=5.2305 $Y=-2.8595
C20	avC11#3	VSS#21	9.73504E-17	$X=8.5545 $Y=-4.029
C21	avC11#9	VDD#1	1.15E-17	$X=13.358 $Y=-6.662
C22	OUT#2	avC8#13	2.89823E-17	$X=10.544 $Y=-18.032
C23	CLK#3	VSS#21	3.01897E-16	$X=6.4925 $Y=-8.87
C24	avC11#13	avC14#4	1.42779E-16	$X=11.7165 $Y=-4.52
C25	OUT#7	VDD#5	1.02343E-17	$X=16.082 $Y=-14.294
C26	avC14#4	VDD#24	1.27428E-17	$X=11.1875 $Y=-2.0675
C27	CLK#11	VDD#11	2.46766E-16	$X=5.858 $Y=-3.0355
C28	avC9#3	CLK#10	4.18736E-18	$X=5.377 $Y=-6.2855
C29	avC9#4	CLK#3	5.22731E-18	$X=5.1605 $Y=-8.642
C30	INP#2	VSS#21	2.68582E-17	$X=7.7345 $Y=-6.1235
C31	avC14#7	avC11#13	6.23839E-17	$X=11.348 $Y=-5.743
C32	avC9#5	VDD#11	1.03497E-16	$X=6.631 $Y=-3.003
C33	avC12#4	CLK#3	1.45939E-17	$X=7.3865 $Y=-8.3575
C34	CLK	VSS#21	7.93353E-17	$X=7.3395 $Y=-8.89
C35	VDD#36	avC9#2	1.79891E-17	$X=4.5045 $Y=-5.324
C36	avC12#4	INN#3	2.79354E-17	$X=10.5795 $Y=-7.164
C37	avC7#7	avC9#4	5.87728E-18	$X=4.735 $Y=-9.1705
C38	avC14	VDD#19	5.48662E-17	$X=17.069 $Y=-1.41
C39	avC7#8	VSS#21	6.85552E-17	$X=4.7195 $Y=-11.9225
C40	VDD#4	avC11	4.54533E-18	$X=11.7105 $Y=-1.113
C41	avC9#11	VDD#24	8.42704E-18	$X=9.4335 $Y=-1.6955
C42	VSS#12	OUT#2	2.70933E-17	$X=11.0545 $Y=-18.477
C43	avC9#2	avC13#7	6.81007E-17	$X=4.5255 $Y=-3.857
C44	avC9#10	VDD#27	2.98542E-17	$X=8.447 $Y=-1.898
C45	avC7#7	VSS#21	2.01738E-16	$X=4.885 $Y=-10.569
C46	avC13#7	avC9#14	5.51549E-18	$X=5.595 $Y=-1.9565
C47	avC9#4	VSS#21	7.27897E-17	$X=4.6695 $Y=-8.5575
C48	CLK	VSS#16	5.45678E-18	$X=8.7045 $Y=-9.288
C49	avC14#4	VSS#21	1.46426E-16	$X=11.311 $Y=-4.0815
C50	VDD#33	avC9#2	1.68358E-17	$X=4.283 $Y=-3.8525
C51	CLK	avC12#5	2.63273E-17	$X=7.2945 $Y=-8.1755
C52	avC8	VSS#7	1.85916E-16	$X=7.846 $Y=-13.233
C53	avC9#2	VDD#11	5.91514E-17	$X=5.091 $Y=-4.551
C54	VSS#24	avC7#5	8.88884E-17	$X=4.594 $Y=-9.315
C55	avC14#7	VSS#21	3.88637E-17	$X=11.139 $Y=-6.0855
C56	avC9#6	avC11#3	1.08083E-17	$X=8.7135 $Y=-4.187
C57	OUT	VSS#21	9.15646E-17	$X=13.462 $Y=-13.3145
C58	avC13#4	VDD#11	2.59439E-17	$X=8.1655 $Y=-4.4725
C59	avC13#4	avC9#10	4.60616E-17	$X=8.6485 $Y=-3.08
C60	avC10	avC11#16	1.26874E-17	$X=14.8115 $Y=-7.429
C61	avC7#5	CLK	1.53109E-17	$X=6.6405 $Y=-8.8755
C62	avC8#8	VDD#11	2.35719E-16	$X=18.0455 $Y=-12.96
C63	avC13#4	avC11#3	3.30288E-17	$X=8.493 $Y=-4.0985
C64	VDD#1	avC11#16	5.50897E-18	$X=14.564 $Y=-7.307
C65	avC8#7	OUT#1	1.12953E-16	$X=11.829 $Y=-15.0025
C66	avC11#9	avC10#5	8.46002E-18	$X=13.861 $Y=-8.266
C67	avC10#5	VDD#8	1.16475E-17	$X=15.4655 $Y=-9.174
C68	avC13#4	VDD#30	1.29049E-17	$X=6.197 $Y=-2.25
C69	VDD#36	avC7#2	6.15378E-17	$X=4.443 $Y=-6.7095
C70	VSS#5	avC12#4	6.6956E-18	$X=9.4785 $Y=-9.193
C71	avC9#16	VDD#11	9.55223E-17	$X=11.544 $Y=-3.117
C72	avC13#4	avC9#9	2.11355E-17	$X=9.396 $Y=-3.6595
C73	OUT#6	VSS#21	5.22193E-17	$X=15.439 $Y=-12.199
C74	avC12#7	VSS#21	2.89409E-17	$X=9.9745 $Y=-6.485
C75	INP#1	avC13	4.41881E-17	$X=8.04 $Y=-6.2515
C76	VSS#16	avC12#4	2.7664E-17	$X=9.6035 $Y=-9.2435
C77	VDD#24	avC9#15	1.12482E-17	$X=11.458 $Y=-1.731
C78	avC14#4	avC9#17	1.95408E-17	$X=11.525 $Y=-4.358
C79	OUT#15	VDD#8	2.09348E-16	$X=17.8435 $Y=-11.0695
C80	avC13#7	VDD#30	1.1703E-17	$X=4.814 $Y=-1.816
C81	avC10	VDD#11	4.36964E-17	$X=15.0115 $Y=-6.955
C82	avC12	avC14#7	7.34297E-18	$X=11.0535 $Y=-6.8675
C83	VDD#1	VSS#21	2.94617E-17	$X=14.273 $Y=-5.9075
C84	OUT#15	avC8#14	1.74349E-17	$X=17.7565 $Y=-11.173
C85	avC12#5	INP#1	5.67083E-17	$X=7.638 $Y=-6.819
C86	avC9#14	VDD#11	1.16403E-17	$X=6.2425 $Y=-1.721
C87	avC14	avC11#18	2.00215E-17	$X=15.659 $Y=-2.3525
C88	avC9#9	avC11#14	3.53049E-17	$X=11.0535 $Y=-3.073
C89	avC9#10	VSS#21	2.60241E-18	$X=8.8645 $Y=-2.475
C90	avC13#4	INP#2	1.78868E-18	$X=7.758 $Y=-6.029
C91	VSS#4	avC10#5	1.14817E-17	$X=14.1395 $Y=-9.5975
C92	avC11#13	avC9#9	3.36624E-18	$X=10.921 $Y=-3.922
C93	avC11#18	VDD#11	4.6271E-17	$X=15.002 $Y=-2.2255
C94	INP#1	avC13#4	2.40946E-18	$X=7.959 $Y=-6.3385
C95	avC10#8	avC11#17	1.58917E-18	$X=14.64 $Y=-10.318
C96	avC14	CLK#9	1.35725E-16	$X=16.334 $Y=-3.09
C97	INN#3	VSS#21	6.10203E-18	$X=10.655 $Y=-7.155
C98	VDD#24	avC11#2	3.89358E-18	$X=9.8175 $Y=-1.6585
C99	avC9#5	CLK#10	2.80022E-18	$X=6.763 $Y=-4.402
C100	avC14#7	INN#1	1.09298E-17	$X=10.8195 $Y=-6.3575
C101	avC12#5	CLK#3	7.72734E-18	$X=6.8655 $Y=-7.7995
C102	OUT#7	VSS#1	2.7705E-17	$X=14.4105 $Y=-12.3685
C103	VDD#30	CLK#11	7.73316E-18	$X=5.645 $Y=-2.2285
C104	avC12	VSS#21	1.37276E-16	$X=10.814 $Y=-9.0495
C105	OUT#6	VDD#8	1.07372E-17	$X=15.786 $Y=-11.828
C106	avC9#5	avC13#4	1.61471E-16	$X=7.213 $Y=-3.5965
C107	VDD#1	avC11#15	1.47028E-17	$X=14.5985 $Y=-6.447
C108	avC12#4	CLK#15	2.84545E-17	$X=9.42 $Y=-8.592
C109	VSS#1	OUT#6	4.50278E-17	$X=14.663 $Y=-11.996
C110	avC9#5	CLK#11	2.8627E-17	$X=6.123 $Y=-3.031
C111	INN#4	VSS#21	9.40944E-18	$X=10.9555 $Y=-7.155
C112	OUT#7	VDD#11	6.49366E-17	$X=14.845 $Y=-13.465
C113	avC12#7	INN#1	6.22757E-18	$X=10.5775 $Y=-6.4385
C114	VDD#4	CLK#13	1.58373E-17	$X=14.536 $Y=-1.986
C115	avC8#8	OUT#11	1.01719E-17	$X=17.839 $Y=-14.3075
C116	avC11#16	VDD#11	2.6708E-17	$X=14.6545 $Y=-7.7565
C117	VDD#30	avC9#14	3.88535E-17	$X=5.9265 $Y=-1.587
C118	avC11#8	CLK#13	3.99917E-18	$X=13.8165 $Y=-1.9045
C119	VSS#5	avC12	5.03994E-17	$X=10.357 $Y=-9.8445
C120	avC11#3	VDD#11	7.72509E-18	$X=8.5575 $Y=-4.025
C121	INN#4	avC11#9	1.75462E-17	$X=11.0755 $Y=-7.1845
C122	OUT#7	avC10#7	2.53449E-18	$X=14.932 $Y=-11.825
C123	avC12#7	CLK#15	3.55538E-18	$X=9.716 $Y=-7.708
C124	avC11#8	avC9#15	1.70793E-17	$X=11.643 $Y=-1.798
C125	avC12#4	VSS#21	2.11787E-16	$X=9.1895 $Y=-7.325
C126	avC8#9	VDD#5	1.54047E-16	$X=17.283 $Y=-15.481
C127	VDD#1	avC10	7.71841E-17	$X=14.7885 $Y=-6.639
C128	avC8#2	avC7#8	9.19882E-18	$X=4.861 $Y=-11.966
C129	avC11#13	VSS#21	4.31365E-17	$X=11.944 $Y=-4.7675
C130	VSS#16	CLK#15	2.24495E-17	$X=9.5855 $Y=-9.2645
C131	VDD#27	avC11#2	3.40605E-17	$X=8.2885 $Y=-1.6585
C132	avC9#16	VSS#21	3.66599E-17	$X=11.544 $Y=-3.121
C133	avC7#2	VDD#11	2.15894E-17	$X=5.035 $Y=-6.7735
C134	avC10	VSS#21	1.5573E-17	$X=15.0185 $Y=-6.967
C135	avC8#13	VSS#21	1.30129E-17	$X=10.209 $Y=-17.853
C136	avC10#5	avC11#17	1.72847E-17	$X=14.711 $Y=-8.8575
C137	avC8#7	VSS#21	5.09002E-16	$X=10.515 $Y=-16.906
C138	avC9#2	avC13#4	3.0906E-17	$X=6.0325 $Y=-4.5425
C139	avC9#14	avC11#2	2.95353E-18	$X=7.117 $Y=-1.8085
C140	OUT#6	avC10#8	1.41522E-17	$X=14.757 $Y=-11.9235
C141	avC12	INN#3	9.79275E-18	$X=10.667 $Y=-7.2945
C142	avC11	VDD#11	1.75821E-16	$X=10.7305 $Y=-0.795
C143	VDD#4	avC11#18	1.23969E-16	$X=14.7035 $Y=-2.1115
C144	avC9#5	avC11#2	4.87088E-18	$X=7.7995 $Y=-2.343
C145	avC11#14	avC9#16	2.027E-17	$X=11.752 $Y=-3.0625
C146	VDD#24	avC9#16	3.64704E-18	$X=11.3945 $Y=-2.464
C147	VSS#5	CLK#15	8.43666E-18	$X=9.5235 $Y=-9.2635
C148	avC7#5	VDD#11	1.28415E-17	$X=5.036 $Y=-8.813
C149	avC14#4	avC11#3	3.45939E-18	$X=8.924 $Y=-4.0355
C150	avC9#2	CLK#10	1.64989E-17	$X=5.974 $Y=-4.968
C151	avC13	VSS#21	2.47687E-17	$X=8.1345 $Y=-5.8385
C152	avC12#5	avC13#4	1.40586E-17	$X=7.4825 $Y=-6.138
C153	avC10	VDD#3	1.23247E-18	$X=14.6085 $Y=-6.713
C154	avC9#4	VDD#11	2.02675E-17	$X=4.6765 $Y=-8.549
C155	avC9#11	VDD#11	1.37002E-17	$X=8.8665 $Y=-1.803
C156	avC9#2	CLK#11	1.39685E-17	$X=5.4975 $Y=-3.724
C157	VSS#18	avC7#7	4.1687E-17	$X=4.771 $Y=-11.1655
C158	avC8	VSS#21	2.6914E-16	$X=6.634 $Y=-13.0375
C159	VSS#4	avC10#7	1.02981E-16	$X=14.255 $Y=-10.7195
C160	avC12#5	VSS#21	4.48441E-17	$X=7.21 $Y=-6.815
C161	VDD#19	CLK#9	5.71436E-18	$X=16.6355 $Y=-2.019
C162	avC12	INN#4	1.76051E-17	$X=10.942 $Y=-7.3415
C163	avC11#16	VSS#21	1.0942E-16	$X=14.659 $Y=-7.7665
C164	avC9#14	CLK#16	1.20925E-17	$X=5.933 $Y=-1.7045
C165	avC7#5	avC9#4	3.06104E-17	$X=4.7545 $Y=-8.6275
C166	VSS#18	avC8	4.03043E-17	$X=5.53 $Y=-12.854
C167	avC9#15	avC11	1.62862E-17	$X=11.334 $Y=-1.563
C168	avC11#9	INN#2	1.05622E-17	$X=10.9745 $Y=-7.0845
C169	VDD#8	avC8#14	4.76359E-17	$X=17.622 $Y=-11.0805
C170	VSS#24	avC7#7	6.78916E-17	$X=4.582 $Y=-10.0795
C171	OUT#15	VDD#11	5.14808E-17	$X=18.0005 $Y=-11.217
C172	avC14#4	avC11#18	7.74637E-17	$X=13.9045 $Y=-2.7845
C173	avC11#13	avC9#17	1.03962E-17	$X=11.5995 $Y=-4.4365
C174	VDD#30	CLK#16	1.14432E-17	$X=5.766 $Y=-1.6425
C175	VSS#5	avC8#6	9.51714E-18	$X=9.8885 $Y=-12.947
C176	VDD#4	CLK#9	6.12731E-18	$X=15.4685 $Y=-2.821
C177	avC9#6	avC14#4	2.26753E-17	$X=9.6555 $Y=-4.4245
C178	VDD#24	avC11#4	7.21617E-17	$X=11.649 $Y=-1.047
C179	avC9#6	VSS#21	3.47743E-17	$X=9.0745 $Y=-4.5455
C180	VDD#27	avC9#11	3.10146E-17	$X=8.6645 $Y=-1.6955
C181	VSS#16	avC12	2.45547E-17	$X=9.901 $Y=-9.467
C182	avC7#5	CLK#3	9.73435E-18	$X=5.796 $Y=-8.8565
C183	avC11#13	INN#1	9.8546E-19	$X=10.837 $Y=-6.2915
C184	avC9#2	VDD#30	8.55512E-18	$X=5.2665 $Y=-2.847
C185	VDD#24	avC11	6.23834E-17	$X=10.9125 $Y=-1.0485
C186	VSS#1	avC10#8	1.82891E-17	$X=14.515 $Y=-11.871
C187	VDD#19	CLK#8	1.39931E-17	$X=17.313 $Y=-1.6705
C188	avC14#7	avC11#9	2.89842E-17	$X=11.425 $Y=-6.419
C189	avC8#5	OUT#1	1.51061E-17	$X=10.966 $Y=-14.4255
C190	avC11#2	avC9#9	1.35283E-17	$X=9.1625 $Y=-2.477
C191	avC9#2	avC7#2	2.3673E-17	$X=5.044 $Y=-5.6365
C192	avC8#7	VSS#12	5.37174E-17	$X=10.2335 $Y=-17.671
C193	avC11#18	CLK#8	5.29915E-18	$X=16.8505 $Y=-2.0575
C194	avC10#7	avC11#17	1.19871E-18	$X=14.7185 $Y=-9.225
C195	avC8#2	avC7#7	2.0643E-17	$X=5.105 $Y=-11.408
C196	OUT#11	VDD#11	1.89259E-16	$X=17.6855 $Y=-15.0675
C197	avC13	CLK#10	2.47975E-18	$X=7.759 $Y=-5.6995
C198	VDD#24	avC11#8	6.14974E-17	$X=11.5745 $Y=-1.529
C199	avC9#10	avC11#2	6.37904E-17	$X=8.678 $Y=-2.1955
C200	OUT#6	VDD#11	4.61626E-17	$X=15.426 $Y=-12.161
C201	avC13	avC12#4	7.04161E-18	$X=8.3175 $Y=-6.0965
C202	avC10	avC11#15	1.69792E-17	$X=14.765 $Y=-6.671
C203	avC9#9	VDD#11	1.43433E-16	$X=10.067 $Y=-3.2045
C204	avC13#4	VSS#21	1.12451E-16	$X=8.145 $Y=-4.4985
C205	avC12#5	avC13	3.15394E-17	$X=7.8425 $Y=-6.1465
C206	avC11#8	avC9#11	8.17665E-18	$X=9.6635 $Y=-1.773
C207	avC9#3	avC7#2	2.57065E-17	$X=4.774 $Y=-6.742
C208	avC12#4	INP#2	6.48514E-19	$X=7.827 $Y=-6.2
C209	avC8#7	OUT#2	2.76575E-17	$X=11.0655 $Y=-18.1025
C210	OUT#7	avC10#8	1.07476E-17	$X=14.651 $Y=-12.0835
C211	avC12#4	INN#2	9.89868E-18	$X=10.5535 $Y=-7.0515
C212	avC8#14	VDD#11	8.44863E-17	$X=17.6565 $Y=-11.1325
C213	avC9#9	avC11	7.1022E-18	$X=10.4845 $Y=-1.6835
C214	avC11#18	CLK#13	4.27064E-17	$X=14.71 $Y=-2.0585
C215	avC12#7	avC14#7	3.3539E-17	$X=10.5385 $Y=-6.2915
C216	avC8#9	VSS#21	1.02482E-16	$X=17.14 $Y=-16.227
C217	VSS#4	avC11#9	5.83145E-18	$X=12.673 $Y=-9.043
C218	avC11#18	VDD#19	8.76291E-18	$X=16.313 $Y=-1.5115
C219	VSS#24	VDD#36	9.58888E-18	$X=4.0775 $Y=-8.679
C220	avC13	INP#2	1.07699E-17	$X=7.832 $Y=-6.0535
C221	avC10#7	VSS#21	1.31043E-16	$X=14.9735 $Y=-10.7955
C222	CLK#8	VDD#11	9.88987E-17	$X=17.4525 $Y=-1.999
C223	avC12#5	CLK#10	1.2913E-17	$X=7.047 $Y=-6.1245
C224	avC12#5	INP#2	7.26793E-18	$X=7.666 $Y=-6.213
C225	avC13#4	avC9#6	3.02507E-17	$X=8.81 $Y=-4.532
C226	avC9#5	avC11#3	5.15286E-18	$X=8.1405 $Y=-3.8125
C227	INN#4	avC14#7	2.82343E-17	$X=10.9985 $Y=-6.906
C228	avC12	INN#2	5.72919E-18	$X=10.7515 $Y=-7.3515
C229	VDD#33	avC13#7	1.85396E-16	$X=3.239 $Y=-2.6125
C230	avC11#9	INN#1	6.54249E-19	$X=10.8555 $Y=-6.5035
C231	OUT#7	VSS#21	2.96713E-16	$X=14.8605 $Y=-13.5215
C232	avC14	VSS#21	2.46094E-17	$X=17.105 $Y=-2.6295
C233	avC8	avC7#8	1.27641E-18	$X=4.897 $Y=-12.0265
C234	VDD#36	avC9	1.1696E-17	$X=4.4435 $Y=-5.346
C235	avC11#15	VDD#11	5.52317E-17	$X=14.6565 $Y=-6.543
C236	avC11#4	VDD#11	4.31883E-17	$X=11.943 $Y=-0.8585
C237	avC7#2	avC9	1.59987E-18	$X=4.767 $Y=-5.5275
C238	avC13#7	VDD#11	1.46884E-16	$X=3.654 $Y=-2.6705
C239	avC8#2	VSS#21	3.90404E-17	$X=5.2865 $Y=-12.0945
C240	VDD#8	avC8#8	7.57011E-17	$X=17.8815 $Y=-12.4635
C241	avC11#4	VDD#4	2.03394E-17	$X=12.4545 $Y=-1.0985
C242	VSS#4	OUT#1	5.15111E-18	$X=12.6855 $Y=-12.323
C243	avC11#9	VSS#21	3.25504E-16	$X=12.346 $Y=-7.4945
C244	avC13#4	CLK#10	2.65186E-17	$X=7.2655 $Y=-5.099
C245	avC14#4	avC9#16	4.80578E-17	$X=11.504 $Y=-3.286
C246	avC13#7	avC9	8.1087E-18	$X=4.4545 $Y=-4.5495
C247	avC11#18	CLK#9	3.85068E-17	$X=15.611 $Y=-2.806
C248	avC11#17	VSS#21	5.15843E-17	$X=14.659 $Y=-8.859
C249	avC11#8	VDD#4	4.19641E-17	$X=12.712 $Y=-1.7605
C250	CLK#13	VDD#11	8.69816E-17	$X=14.603 $Y=-1.999
C251	avC8#9	OUT#11	5.2147E-17	$X=17.598 $Y=-15.3045
C252	avC11#8	VDD#11	4.20123E-17	$X=11.99 $Y=-1.6815
C253	avC9#11	avC11#2	2.10414E-17	$X=8.7745 $Y=-1.839
C254	VDD#1	avC14#4	5.7749E-18	$X=13.1915 $Y=-5.2395
C255	OUT#1	VSS#21	4.82858E-16	$X=12.336 $Y=-14.26
C256	avC11#13	VDD#1	4.44689E-17	$X=13.095 $Y=-5.3305
C257	avC11#14	VDD#4	2.03438E-17	$X=13.2515 $Y=-2.4235
C258	avC14#4	avC11#15	3.15288E-18	$X=14.334 $Y=-6.308
C259	VDD#33	avC9	3.64794E-18	$X=4.324 $Y=-4.5615
C260	VSS#18	avC7#8	3.47957E-17	$X=4.6965 $Y=-11.9965
C261	VDD#5	OUT#11	8.4672E-17	$X=17.5945 $Y=-15.0975
C262	avC10#8	VSS#21	6.7655E-17	$X=14.619 $Y=-11.8675
C263	avC11#13	VDD#4	4.82198E-18	$X=12.9535 $Y=-3.4925
C264	avC10#7	VDD#8	2.81286E-17	$X=15.347 $Y=-10.7215
C265	avC9#9	avC14#4	2.26739E-17	$X=10.463 $Y=-3.491
C266	avC9#15	VDD#11	5.72864E-17	$X=11.544 $Y=-1.8295
C267	avC11#14	VDD#11	1.10559E-16	$X=12.38 $Y=-2.874
C268	avC12	CLK#15	1.98243E-17	$X=9.7965 $Y=-8.914
C269	avC9	VDD#11	1.30631E-16	$X=4.678 $Y=-5.0215
C270	VDD#4	avC14#4	7.84475E-17	$X=13.016 $Y=-2.8045
C271	avC13#4	CLK#11	6.1262E-17	$X=6.466 $Y=-3.435
C272	avC9#17	VSS#21	4.99744E-17	$X=11.544 $Y=-4.3835
C273	avC13#7	CLK#11	2.62652E-17	$X=5.1125 $Y=-2.923
C274	avC14#4	CLK#13	4.7638E-18	$X=14.188 $Y=-2.2645
C275	avC7#5	VSS#21	6.83815E-17	$X=5.0155 $Y=-8.84
C276	OUT#15	avC8#8	4.06808E-17	$X=18.047 $Y=-12.1345
C277	VDD#5	avC8#8	7.84255E-17	$X=17.77 $Y=-13.8785
C278	INN#2	VSS#21	8.9041E-17	$X=10.739 $Y=-7.014
C279	OUT#7	VDD#8	1.22296E-17	$X=15.4445 $Y=-12.718
C280	CLK#3	INP#1	3.08271E-18	$X=7.387 $Y=-7.5775
C281	avC11#2	VDD#11	2.08726E-16	$X=8.5165 $Y=-1.94
C282	VDD#8	avC10#8	2.37615E-18	$X=14.7425 $Y=-11.7945
C283	INN#1	VSS#21	2.13636E-17	$X=10.739 $Y=-6.426
C284	VSS#24	avC9#4	1.16095E-17	$X=4.5515 $Y=-8.91
C285	avC8#9	VDD#11	3.04584E-16	$X=17.089 $Y=-16.0875
C286	OUT#15	avC10#7	2.81324E-18	$X=16.3255 $Y=-10.999
C287	VSS#12	avC8#13	1.67153E-17	$X=10.1785 $Y=-17.932
C288	avC13#7	CLK#16	2.52928E-18	$X=5.6215 $Y=-1.7925
C289	avC8#5	VSS#21	1.83114E-16	$X=10.2015 $Y=-14.5145
C290	avC10#5	VSS#21	9.63589E-17	$X=15.003 $Y=-8.848
C291	avC10#5	avC11#16	2.07457E-17	$X=14.7565 $Y=-8.0725
C292	VSS#18	avC8#2	7.17157E-17	$X=5.09 $Y=-12.2375
C293	CLK#15	VSS#21	1.31589E-16	$X=9.471 $Y=-8.87
C294	avC9	CLK#10	1.79627E-17	$X=5.33 $Y=-5.1305
C295	avC11#3	avC9#9	1.57992E-17	$X=8.9275 $Y=-3.827
C296	avC9#14	VDD#27	1.12672E-17	$X=6.938 $Y=-1.587
C297	avC14	CLK#8	4.37689E-17	$X=17.414 $Y=-2.081
C298	CLK#16	VDD#11	3.77622E-17	$X=5.837 $Y=-1.6975
C299	VDD#36	avC9#3	1.7311E-17	$X=4.425 $Y=-6.689
C300	CLK#10	INP#2	7.46056E-18	$X=7.63 $Y=-6.0325
C301	avC8#6	VSS#21	6.79374E-17	$X=9.9095 $Y=-13.2375
C302	OUT#6	avC10#7	3.92373E-17	$X=15.1835 $Y=-11.427
C303	CLK#9	VDD#11	2.55371E-16	$X=16.057 $Y=-3.242
C304	avC8#9	OUT#7	1.37442E-17	$X=15.6125 $Y=-14.415
C305	VSS#7	avC8#5	1.39777E-16	$X=10.0345 $Y=-14.269
C306	CLK#1	INP#1	1.34042E-17	$X=7.577 $Y=-6.8165
C307	avC13#4	CLK#4	4.14429E-17	$X=8.828 $Y=-4.898
C308	avC13	CLK#4	5.24775E-17	$X=8.3425 $Y=-5.7735
C309	CLK#4	avC9#10	1.12346E-17	$X=9.069 $Y=-3.244
C310	avC9#14	VDD#12	1.00471E-17	$X=6.363 $Y=-1.6655
C311	CLK#7	avC14	7.84891E-17	$X=16.562 $Y=-3.7105
C312	VDD#12	CLK#16	5.53342E-18	$X=5.8805 $Y=-1.6795
C313	avC14#7	CLK#4	4.70235E-18	$X=10.9005 $Y=-5.972
C314	INP#1	CLK#4	4.44425E-18	$X=8.224 $Y=-6.5575
C315	CLK#4	avC9#17	1.6876E-17	$X=11.3925 $Y=-4.4615
C316	VDD#12	CLK#8	1.25145E-17	$X=17.35 $Y=-1.958
C317	CLK#1	avC9#2	4.3362E-17	$X=5.268 $Y=-5.1215
C318	avC10	CLK#7	3.24938E-17	$X=15.167 $Y=-6.64
C319	avC9#4	CLK#1	9.96574E-18	$X=4.7985 $Y=-8.365
C320	INP#2	CLK#4	1.10297E-17	$X=7.8285 $Y=-6.086
C321	avC8#5	OUT#9	2.67786E-17	$X=10.624 $Y=-13.772
C322	avC11#15	CLK#7	1.44944E-17	$X=14.757 $Y=-6.43
C323	avC11#9	CLK#7	8.02858E-18	$X=13.5505 $Y=-6.672
C324	VSS#10	OUT#2	2.93988E-17	$X=10.4795 $Y=-17.9035
C325	avC11#9	CLK#4	3.62655E-18	$X=11.3205 $Y=-6.691
C326	INN#4	CLK#4	1.04751E-18	$X=10.884 $Y=-7.0585
C327	VDD#12	avC11	1.46556E-17	$X=10.743 $Y=-0.754
C328	INN#2	CLK#4	2.67379E-18	$X=10.635 $Y=-6.859
C329	CLK#1	avC13#4	1.17786E-17	$X=7.173 $Y=-5.4695
C330	CLK#4	avC14#4	6.46115E-17	$X=10.4915 $Y=-4.711
C331	CLK#4	avC9#9	1.24892E-17	$X=9.9295 $Y=-3.884
C332	CLK#7	VSS#21	2.74592E-16	$X=15.864 $Y=-5.089
C333	avC8#7	VSS#10	2.78814E-16	$X=9.746 $Y=-17.1765
C334	CLK#1	avC9#3	4.03357E-17	$X=4.8305 $Y=-6.729
C335	VSS#10	avC8#13	6.13501E-17	$X=10.016 $Y=-17.691
C336	avC8	VSS#10	7.00017E-18	$X=8.383 $Y=-15.612
C337	avC12#7	CLK#4	6.41309E-17	$X=9.923 $Y=-6.3175
C338	CLK#1	VDD#36	2.48731E-17	$X=4.3825 $Y=-6.6545
C339	avC11#4	VDD#12	2.53385E-17	$X=11.9245 $Y=-0.8265
C340	avC7#5	CLK#1	2.99914E-17	$X=5.242 $Y=-8.2845
C341	VSS#14	avC11#17	1.24078E-17	$X=14.524 $Y=-8.973
C342	CLK#7	VDD#11	2.9508E-16	$X=15.824 $Y=-5.0475
C343	CLK#4	VSS#21	3.84978E-16	$X=9.635 $Y=-5.3705
C344	OUT#9	avC8#6	1.2722E-17	$X=10.204 $Y=-13.261
C345	avC12#5	CLK#1	1.03332E-16	$X=6.8935 $Y=-6.809
C346	CLK#4	avC11#3	1.62932E-17	$X=8.694 $Y=-4.202
C347	avC9#6	CLK#4	1.1321E-16	$X=9.215 $Y=-4.7525
C348	CLK#1	VSS#21	4.18226E-17	$X=5.8565 $Y=-6.789
C349	VSS#10	avC8#5	4.43486E-18	$X=9.918 $Y=-15.632
C350	INN#3	CLK#4	1.6685E-18	$X=10.6145 $Y=-7.0835
C351	VSS#14	avC10#5	8.74589E-17	$X=14.4415 $Y=-9.121
C352	avC11#8	VDD#12	1.13618E-17	$X=11.958 $Y=-1.598
C353	CLK#1	VDD#11	2.27794E-16	$X=5.904 $Y=-6.7335
C354	avC9#11	VDD#12	1.20212E-17	$X=8.8965 $Y=-1.772
C355	VSS#7	OUT#9	4.95019E-17	$X=10.658 $Y=-13.345
C356	avC14#4	CLK#7	2.44983E-17	$X=13.3605 $Y=-4.5335
C357	VDD#12	avC9#15	3.28884E-18	$X=11.5395 $Y=-1.8035
C358	avC12#4	CLK#4	6.24166E-17	$X=9.3825 $Y=-6.4765
C359	avC13#7	VDD#12	1.15514E-17	$X=4.1935 $Y=-2.439
C360	VSS#14	avC11#16	9.68529E-18	$X=14.4395 $Y=-8.4965
C361	VDD#1	CLK#7	9.78279E-17	$X=14.784 $Y=-5.645
C362	avC7#2	CLK#1	1.31688E-16	$X=5.237 $Y=-6.7925
C363	CLK#1	INP#2	5.98475E-18	$X=7.6525 $Y=-6.152
C364	avC11#18	VDD#12	1.01043E-17	$X=14.819 $Y=-2.095
C365	avC11#13	CLK#4	5.57284E-17	$X=11.136 $Y=-4.978
C366	CLK#7	avC11#18	5.41138E-18	$X=15.2355 $Y=-2.971
C367	avC14	VDD#12	6.97102E-17	$X=16.472 $Y=-2.299
C368	INN#1	CLK#4	9.62593E-18	$X=10.689 $Y=-6.3785
C369	avC13	CLK#1	1.61046E-17	$X=7.854 $Y=-5.955
C370	VSS#14	VDD#1	1.89335E-17	$X=14.233 $Y=-8.4055
C371	CLK#1	avC9	5.47365E-18	$X=4.817 $Y=-5.247
C372	OUT#9	VSS#21	8.40983E-17	$X=10.8825 $Y=-13.3145
C373	VDD#12	avC11#2	1.25058E-17	$X=8.6165 $Y=-1.8455
C374	VDD#27	CLK#16	2.49158E-18	$X=6.2135 $Y=-1.6425
C375	VDD#12	CLK#13	2.69895E-18	$X=14.545 $Y=-1.9565
C376	VDD#12	CLK#12	3.88629E-18	$X=3.4055 $Y=-1.951
C377	VDD#1	avC14#8	1.11584E-18	$X=11.6065 $Y=-6.399
C378	avC11#18	VDD#21	2.89806E-18	$X=14.363 $Y=-1.753
C379	VDD#4	avC9#16	1.86748E-18	$X=12.1565 $Y=-2.8435
C380	avC9#2	VDD#37	2.05136E-18	$X=4.562 $Y=-5.9675
C381	VDD#4	avC9#15	2.2691E-18	$X=11.8645 $Y=-1.841
C382	avC11#8	avC9#10	1.40873E-18	$X=10.52 $Y=-2.0555
C383	avC11#14	avC9#10	2.22594E-18	$X=10.18 $Y=-2.6275
C384	avC11#14	CLK#13	8.99432E-19	$X=14.192 $Y=-2.1655
C385	CLK#11	avC11#2	1.26687E-18	$X=7.149 $Y=-2.5035
C386	avC11#14	CLK#7	1.59625E-18	$X=13.574 $Y=-3.6365
C387	avC11#16	CLK#7	1.88746E-18	$X=14.821 $Y=-7.4085
C388	avC9	CLK#11	1.9794E-18	$X=5.073 $Y=-4.345
C389	CLK	avC9#4	2.17722E-18	$X=5.826 $Y=-8.702
C390	avC14#4	avC11	1.20865E-18	$X=10.8545 $Y=-1.501
C391	OUT#11	avC8#14	1.64109E-18	$X=17.677 $Y=-12.595
C392	avC8#14	VSS	3.31205E-18	$X=17.6645 $Y=-11.1455
C393	CLK#13	VSS	1.98041E-18	$X=14.607 $Y=-2.0005
C394	avC9#15	VSS	5.38691E-19	$X=11.544 $Y=-1.8305
C395	avC11#2	VSS	1.4516E-18	$X=8.5095 $Y=-1.9435
C396	CLK#16	VSS	6.0229E-19	$X=5.8345 $Y=-1.6985
C397	CLK#12	VSS	2.06704E-18	$X=3.2145 $Y=-2.0105
C398	avC9#17	VSS	1.09695E-18	$X=11.544 $Y=-4.3835
C399	INN#1	VSS	1.04448E-18	$X=10.7395 $Y=-6.4265
C400	avC8#6	VSS	4.35946E-19	$X=9.9095 $Y=-13.238
C401	avC11#3	VSS	2.71966E-18	$X=8.5545 $Y=-4.029
C402	OUT#6	VSS	6.43363E-19	$X=15.4405 $Y=-12.2005
C403	VDD#1	VSS	9.03171E-19	$X=14.2745 $Y=-5.9075
C404	VDD#4	VSS	4.07308E-18	$X=14.1995 $Y=-1.9185
C405	avC11#14	VSS	1.40274E-18	$X=12.386 $Y=-2.8845
C406	avC11#13	VSS	4.71355E-19	$X=11.9445 $Y=-4.7675
C407	avC8	VSS	4.90973E-18	$X=6.6325 $Y=-13.0405
C408	avC9#2	VSS	6.18356E-19	$X=5.072 $Y=-4.563
C409	CLK#7	VSS	8.86093E-19	$X=15.8675 $Y=-5.088
C410	avC10#7	VSS	3.03584E-18	$X=14.9745 $Y=-10.7965
C411	avC11#9	VSS	4.67484E-18	$X=12.347 $Y=-7.495
C412	OUT#1	VSS	4.35946E-19	$X=12.337 $Y=-14.263
C413	avC11	VSS	3.24742E-20	$X=10.7295 $Y=-0.7955
C414	INN#2	VSS	1.33225E-18	$X=10.7395 $Y=-7.0145
C415	CLK#4	VSS	2.46713E-18	$X=9.635 $Y=-5.37
C416	INP#1	VSS	1.84622E-18	$X=7.91 $Y=-6.822
C417	CLK#3	VSS	3.39003E-18	$X=6.492 $Y=-8.8705
C418	VDD#8	VSS	1.11493E-20	$X=17.1495 $Y=-10.3605
C419	VDD#19	VSS	1.98041E-18	$X=17.0595 $Y=-1.099
C420	avC14#4	VSS	7.77773E-19	$X=11.312 $Y=-4.0805
C421	avC13	VSS	1.42182E-18	$X=8.1345 $Y=-5.838
C422	avC12#5	VSS	1.00384E-19	$X=7.2095 $Y=-6.8155
C423	avC14	VSS	1.35464E-18	$X=17.1085 $Y=-2.628
C424	VDD#20	VSS	8.33626E-19	$X=17.0595 $Y=-1.6405
C425	avC10#2	VSS	8.20544E-19	$X=14.9895 $Y=-6.5405
C426	avC11#19	VSS	1.04143E-18	$X=15.0095 $Y=-1.6405
C427	VDD#3	VSS	7.86945E-19	$X=14.3295 $Y=-6.5405
C428	avC11#6	VSS	1.0421E-18	$X=11.9445 $Y=-1.6405
C429	avC14#5	VSS	1.29369E-19	$X=11.1445 $Y=-4.5455
C430	avC12	VSS	4.67484E-18	$X=10.8145 $Y=-9.0505
C431	avC9#12	VSS	4.02636E-19	$X=8.8645 $Y=-1.6405
C432	avC13#4	VSS	1.13877E-18	$X=8.1445 $Y=-4.498
C433	avC9#14	VSS	1.28276E-18	$X=6.2345 $Y=-1.723
C434	avC12#6	VSS	1.13877E-18	$X=7.3345 $Y=-6.1555
C435	VDD#30	VSS	2.06704E-18	$X=5.4345 $Y=-1.3695
C436	avC9#10	VSS	1.63848E-19	$X=8.8645 $Y=-2.4745
C437	INN#3	VSS	4.31466E-19	$X=10.6555 $Y=-7.1555
C438	INN#4	VSS	1.29369E-19	$X=10.956 $Y=-7.1555
C439	avC12#4	VSS	2.20477E-18	$X=9.1895 $Y=-7.3255
C440	avC9#16	VSS	1.15722E-18	$X=11.544 $Y=-3.121
C441	CLK#9	VSS	7.77773E-19	$X=16.0695 $Y=-3.2485
C442	CLK#10	VSS	1.63848E-19	$X=6.8695 $Y=-5.37
C443	CLK#11	VSS	1.28276E-18	$X=5.8445 $Y=-3.0415
C444	VDD#12	VSS	1.44473E-18	$X=11.1445 $Y=0.453
*
*
.ENDS COMP
*
