*
*
*
*                       LINUX           Tue Dec 10 06:09:24 2019
*
*
*
*  PROGRAM  advgen
*
*  Name           : advgen - Quantus QRC - (64-bit)
*  Version        : 17.1.2-s041
*  Build Date     : Wed Aug 23 16:57:50 PDT 2017
*
*  HSPICE LIBRARY
*
*!LENGTH_UNITS METERS
*
*
*

*
.SUBCKT opamp2_kevin_extract VSS INN INP VBIAS VOUT VBAT
*
*
*  caps2d version: 10
*
*
*       TRANSISTOR CARDS
*
*
MavD44_1	avC9#5	INN#1	avC7#4	VSS#5	nel#20ivpcell#20PRIMLIB
+ L=5e-07	W=1e-06
+ AD=4.8e-13	AS=4.8e-13	PD=2.96e-06	PS=2.96e-06
+ NRD=1.730E-01	NRS=1.730E-01	wtot=1e-06
MavD44_2	VSS#8	VBIAS#2	avC9#2	VSS#5	nel#20ivpcell#20PRIMLIB
+ L=5e-07	W=2e-06
+ AD=9.6e-13	AS=9.6e-13	PD=4.96e-06	PS=4.96e-06
+ NRD=8.650E-02	NRS=8.650E-02	wtot=2e-06
MavD44_3	avC8#8	INP#1	avC9#8	VSS#5	nel#20ivpcell#20PRIMLIB
+ L=5e-07	W=1e-06
+ AD=4.8e-13	AS=4.8e-13	PD=2.96e-06	PS=2.96e-06
+ NRD=1.730E-01	NRS=1.730E-01	wtot=1e-06
MavD44_4	VOUT#6	VBIAS#1	VSS#1	VSS#5	nel#20ivpcell#20PRIMLIB
+ L=5e-07	W=2e-06
+ AD=9.6e-13	AS=9.6e-13	PD=4.96e-06	PS=4.96e-06
+ NRD=8.650E-02	NRS=8.650E-02	wtot=2e-06
MavD46_1	VBAT#13	avC7#11	avC7#8	VBAT#1
+ pel#20ivpcell#20PRIMLIB	L=5e-07	W=2e-06
+ AD=9.6e-13	AS=9.6e-13	PD=4.96e-06	PS=4.96e-06
+ NRD=8.650E-02	NRS=8.650E-02	wtot=2e-06
MavD46_2	avC8#2	avC7#9	VBAT#9	VBAT#1	pel#20ivpcell#20PRIMLIB
+ L=5e-07	W=2e-06
+ AD=9.6e-13	AS=9.6e-13	PD=4.96e-06	PS=4.96e-06
+ NRD=8.650E-02	NRS=8.650E-02	wtot=2e-06
MavD46_3	VOUT#1	avC8#11	VBAT#11	VBAT#1
+ pel#20ivpcell#20PRIMLIB	L=5e-07	W=4e-06
+ AD=1.92e-12	AS=1.92e-12	PD=8.96e-06	PS=8.96e-06
+ NRD=4.325E-02	NRS=4.325E-02	wtot=4e-06
*
*
*       RESISTOR AND CAP/DIODE CARDS
*
Ra9	avC8#13	avC8#22	3.711E-03	$METTP
+ $X=23.75 $Y=10.6605
Ra18	avC8#22	avC8#31	3.711E-03	$METTP
+ $X=23.75 $Y=8.2805
Ra27	avC8#31	avC8#40	3.711E-03	$METTP
+ $X=23.75 $Y=5.9005
Ra36	avC8#40	avC8#49	2.741E-03	$METTP
+ $X=23.75 $Y=3.7965
Ra37	avC8#49	avC8#10	    0.6927	$METTP
+ $X=10.48 $Y=2.95
Ra47	avC8#49	avC8#59	3.711E-03	$METTP
+ $X=23.75 $Y=1.1405
Ra56	avC8#59	avC8#68	3.711E-03	$METTP
+ $X=23.75 $Y=-1.2395
Ra65	avC8#68	avC8#77	3.711E-03	$METTP
+ $X=23.75 $Y=-3.6195
Ra74	avC8#77	avC8#86	3.711E-03	$METTP
+ $X=23.75 $Y=-5.9995
Ra82	avC8#86	avC8#12	    2.0000	$METTP
+ $X=20.18 $Y=-7.19
Ra83	avC8#12	avC8#13	    2.0000	$METTP
+ $X=26.13 $Y=11.85
Ra84	avC8#12	avC8#13	    2.0000	$METTP
+ $X=28.51 $Y=11.85
Ra85	avC8#12	avC8#13	    2.0000	$METTP
+ $X=33.27 $Y=11.85
Ra86	avC8#12	avC8#13	    2.0000	$METTP
+ $X=30.89 $Y=11.85
Ra87	avC8#12	avC8#13	    2.0000	$METTP
+ $X=23.75 $Y=11.85
Ra88	avC8#12	avC8#13	    2.0000	$METTP
+ $X=14.23 $Y=11.85
Ra89	avC8#12	avC8#13	    2.0000	$METTP
+ $X=16.61 $Y=11.85
Ra90	avC8#12	avC8#13	    2.0000	$METTP
+ $X=21.37 $Y=11.85
Ra91	avC8#12	avC8#13	    2.0000	$METTP
+ $X=18.99 $Y=11.85
Ra92	avC8#12	avC8#22	    2.0000	$METTP
+ $X=26.13 $Y=9.47
Ra93	avC8#12	avC8#22	    2.0000	$METTP
+ $X=28.51 $Y=9.47
Ra94	avC8#12	avC8#22	    2.0000	$METTP
+ $X=33.27 $Y=9.47
Ra95	avC8#12	avC8#22	    2.0000	$METTP
+ $X=30.89 $Y=9.47
Ra96	avC8#12	avC8#22	    2.0000	$METTP
+ $X=23.75 $Y=9.47
Ra97	avC8#12	avC8#22	    2.0000	$METTP
+ $X=14.23 $Y=9.47
Ra98	avC8#12	avC8#22	    2.0000	$METTP
+ $X=16.61 $Y=9.47
Ra99	avC8#12	avC8#22	    2.0000	$METTP
+ $X=21.37 $Y=9.47
Ra100	avC8#12	avC8#22	    2.0000	$METTP
+ $X=18.99 $Y=9.47
Ra101	avC8#12	avC8#31	    2.0000	$METTP
+ $X=26.13 $Y=7.09
Ra102	avC8#12	avC8#31	    2.0000	$METTP
+ $X=28.51 $Y=7.09
Ra103	avC8#12	avC8#31	    2.0000	$METTP
+ $X=33.27 $Y=7.09
Ra104	avC8#12	avC8#31	    2.0000	$METTP
+ $X=30.89 $Y=7.09
Ra105	avC8#12	avC8#31	    2.0000	$METTP
+ $X=23.75 $Y=7.09
Ra106	avC8#12	avC8#31	    2.0000	$METTP
+ $X=14.23 $Y=7.09
Ra107	avC8#12	avC8#31	    2.0000	$METTP
+ $X=16.61 $Y=7.09
Ra108	avC8#12	avC8#31	    2.0000	$METTP
+ $X=21.37 $Y=7.09
Ra109	avC8#12	avC8#31	    2.0000	$METTP
+ $X=18.99 $Y=7.09
Ra110	avC8#12	avC8#40	    2.0000	$METTP
+ $X=26.13 $Y=4.71
Ra111	avC8#12	avC8#40	    2.0000	$METTP
+ $X=28.51 $Y=4.71
Ra112	avC8#12	avC8#40	    2.0000	$METTP
+ $X=33.27 $Y=4.71
Ra113	avC8#12	avC8#40	    2.0000	$METTP
+ $X=30.89 $Y=4.71
Ra114	avC8#12	avC8#40	    2.0000	$METTP
+ $X=23.75 $Y=4.71
Ra115	avC8#12	avC8#40	    2.0000	$METTP
+ $X=14.23 $Y=4.71
Ra116	avC8#12	avC8#40	    2.0000	$METTP
+ $X=16.61 $Y=4.71
Ra117	avC8#12	avC8#40	    2.0000	$METTP
+ $X=21.37 $Y=4.71
Ra118	avC8#12	avC8#40	    2.0000	$METTP
+ $X=18.99 $Y=4.71
Ra119	avC8#12	avC8#49	    2.0000	$METTP
+ $X=26.13 $Y=2.33
Ra120	avC8#12	avC8#49	    2.0000	$METTP
+ $X=28.51 $Y=2.33
Ra121	avC8#12	avC8#49	    2.0000	$METTP
+ $X=33.27 $Y=2.33
Ra122	avC8#12	avC8#49	    2.0000	$METTP
+ $X=30.89 $Y=2.33
Ra123	avC8#12	avC8#49	    2.0000	$METTP
+ $X=23.75 $Y=2.33
Ra124	avC8#12	avC8#49	    2.0000	$METTP
+ $X=14.23 $Y=2.33
Ra125	avC8#12	avC8#49	    2.0000	$METTP
+ $X=16.61 $Y=2.33
Ra126	avC8#12	avC8#49	    2.0000	$METTP
+ $X=21.37 $Y=2.33
Ra127	avC8#12	avC8#49	    2.0000	$METTP
+ $X=18.99 $Y=2.33
Ra128	avC8#12	avC8#59	    2.0000	$METTP
+ $X=26.13 $Y=-0.05
Ra129	avC8#12	avC8#59	    2.0000	$METTP
+ $X=28.51 $Y=-0.05
Ra130	avC8#12	avC8#59	    2.0000	$METTP
+ $X=33.27 $Y=-0.05
Ra131	avC8#12	avC8#59	    2.0000	$METTP
+ $X=30.89 $Y=-0.05
Ra132	avC8#12	avC8#59	    2.0000	$METTP
+ $X=23.75 $Y=-0.05
Ra133	avC8#12	avC8#59	    2.0000	$METTP
+ $X=14.23 $Y=-0.05
Ra134	avC8#12	avC8#59	    2.0000	$METTP
+ $X=16.61 $Y=-0.05
Ra135	avC8#12	avC8#59	    2.0000	$METTP
+ $X=21.37 $Y=-0.05
Ra136	avC8#12	avC8#59	    2.0000	$METTP
+ $X=18.99 $Y=-0.05
Ra137	avC8#12	avC8#68	    2.0000	$METTP
+ $X=26.13 $Y=-2.43
Ra138	avC8#12	avC8#68	    2.0000	$METTP
+ $X=28.51 $Y=-2.43
Ra139	avC8#12	avC8#68	    2.0000	$METTP
+ $X=33.27 $Y=-2.43
Ra140	avC8#12	avC8#68	    2.0000	$METTP
+ $X=30.89 $Y=-2.43
Ra141	avC8#12	avC8#68	    2.0000	$METTP
+ $X=23.75 $Y=-2.43
Ra142	avC8#12	avC8#68	    2.0000	$METTP
+ $X=14.23 $Y=-2.43
Ra143	avC8#12	avC8#68	    2.0000	$METTP
+ $X=16.61 $Y=-2.43
Ra144	avC8#12	avC8#68	    2.0000	$METTP
+ $X=21.37 $Y=-2.43
Ra145	avC8#12	avC8#68	    2.0000	$METTP
+ $X=18.99 $Y=-2.43
Ra146	avC8#12	avC8#77	    2.0000	$METTP
+ $X=26.13 $Y=-4.81
Ra147	avC8#12	avC8#77	    2.0000	$METTP
+ $X=28.51 $Y=-4.81
Ra148	avC8#12	avC8#77	    2.0000	$METTP
+ $X=33.27 $Y=-4.81
Ra149	avC8#12	avC8#77	    2.0000	$METTP
+ $X=30.89 $Y=-4.81
Ra150	avC8#12	avC8#77	    2.0000	$METTP
+ $X=23.75 $Y=-4.81
Ra151	avC8#12	avC8#77	    2.0000	$METTP
+ $X=14.23 $Y=-4.81
Ra152	avC8#12	avC8#77	    2.0000	$METTP
+ $X=16.61 $Y=-4.81
Ra153	avC8#12	avC8#77	    2.0000	$METTP
+ $X=21.37 $Y=-4.81
Ra154	avC8#12	avC8#77	    2.0000	$METTP
+ $X=18.99 $Y=-4.81
Ra155	avC8#12	avC8#86	    2.0000	$METTP
+ $X=26.13 $Y=-7.19
Ra156	avC8#12	avC8#86	    2.0000	$METTP
+ $X=28.51 $Y=-7.19
Ra157	avC8#12	avC8#86	    2.0000	$METTP
+ $X=33.27 $Y=-7.19
Ra158	avC8#12	avC8#86	    2.0000	$METTP
+ $X=30.89 $Y=-7.19
Ra159	avC8#12	avC8#86	    2.0000	$METTP
+ $X=23.75 $Y=-7.19
Ra160	avC8#12	avC8#86	    2.0000	$METTP
+ $X=14.23 $Y=-7.19
Ra161	avC8#12	avC8#86	    2.0000	$METTP
+ $X=16.61 $Y=-7.19
Ra162	avC8#12	avC8#86	    2.0000	$METTP
+ $X=21.37 $Y=-7.19
Rb1	avC8#9	avC8#10	    6.5000	$MET3	$X=6.83 $Y=2.95
Rc1	avC8#6	avC8#9	    4.5000	$MET2	$X=6.83 $Y=2.95
Rc2	VOUT#4	VOUT#7	    9.0000	$MET2	$X=10.565 $Y=1.04
Rd2	avC7	avC7#3	4.514E-02	$MET1	$X=2.3225 $Y=6.3625
Rd3	avC7#3	avC7#5	    1.5896	$MET1	$X=2.06 $Y=3.1075
Rd5	avC7#3	avC7#7	    0.3528	$MET1	$X=2.06 $Y=6.7975
Rd6	avC7#7	avC7#8	    1.8750	$MET1	$X=2.06 $Y=7.875
Rd7	avC7#4	avC7#5	    3.7500	$MET1	$X=2.06 $Y=-0.29
Rd9	avC9	avC9#4	    0.9421	$MET1	$X=3.855 $Y=-2.183
Rd10	avC9#4	avC9#6	    0.1323	$MET1	$X=3.4775 $Y=-0.5275
Rd12	avC9#4	avC9#9	    0.3683	$MET1	$X=4.8225 $Y=-0.5275
Rd14	avC9#2	avC9	    1.8750	$MET1	$X=3.855 $Y=-4.595
Rd15	avC9#5	avC9#6	    3.7500	$MET1	$X=3.1 $Y=-0.29
Rd16	avC9#8	avC9#9	    3.7500	$MET1	$X=5.79 $Y=-0.29
Rd18	avC8	avC8#4	    0.8156	$MET1	$X=6.83 $Y=5.7905
Rd20	avC8#4	avC8#6	    0.3301	$MET1	$X=6.83 $Y=3.6925
Rd21	avC8#6	avC8#7	    0.7645	$MET1	$X=6.83 $Y=1.445
Rd22	avC8#7	avC8#8	    3.7500	$MET1	$X=6.83 $Y=-0.29
Rd23	avC8#2	avC8	    1.8750	$MET1	$X=6.83 $Y=7.875
Rd25	VOUT#2	VOUT	    1.1234	$MET1	$X=10.565 $Y=3.633
Rd26	VOUT	VOUT#4	    0.2072	$MET1	$X=10.565 $Y=1.535
Rd27	VOUT#4	VOUT#5	    1.3408	$MET1	$X=10.565 $Y=-1.4125
Rd28	VOUT#5	VOUT#6	    1.8750	$MET1	$X=10.565 $Y=-4.595
Rd29	VOUT#1	VOUT#2	    0.9375	$MET1	$X=10.565 $Y=6.865
Rd31	VSS#2	VSS#4	    0.6509	$MET1	$X=9.525 $Y=-6.347
Rd34	VSS#4	VSS	    0.5745	$MET1	$X=7.1 $Y=-7.365
Rd35	VSS#4	VSS#9	    0.6509	$MET1	$X=4.895 $Y=-6.3475
Rd37	VSS#1	VSS#2	    1.8750	$MET1	$X=9.525 $Y=-4.595
Rd38	VSS#5	VSS#4	    0.4688	$MET1	$X=7.1 $Y=-7.365
Rd39	VSS#5	VSS#4	    0.4688	$MET1	$X=7.1 $Y=-7.365
Rd40	VSS#8	VSS#9	    1.8750	$MET1	$X=4.895 $Y=-4.595
Rd42	VBAT#2	VBAT#4	    0.4950	$MET1	$X=6.945 $Y=10.415
Rd43	VBAT#4	VBAT#5	    0.7497	$MET1	$X=9.505 $Y=9.5105
Rd44	VBAT#4	VBAT#6	8.953E-02	$MET1	$X=6.945 $Y=10.415
Rd46	VBAT#4	VBAT#8	    0.5228	$MET1	$X=5.75 $Y=9.5125
Rd49	VBAT#4	VBAT	    0.4393	$MET1	$X=6.945 $Y=10.415
Rd50	VBAT#4	VBAT#14	    0.6007	$MET1	$X=3.1025 $Y=9.5125
Rd52	VBAT#1	VBAT#2	    3.7500	$MET1	$X=11.445 $Y=10.415
Rd53	VBAT#1	VBAT#2	    3.7500	$MET1	$X=11.445 $Y=10.415
Rd54	VBAT#1	VBAT#6	    0.4167	$MET1	$X=6.445 $Y=10.415
Rd55	VBAT#1	VBAT#6	    0.4167	$MET1	$X=6.445 $Y=10.415
Rd56	VBAT#9	VBAT#8	    1.8750	$MET1	$X=5.79 $Y=7.875
Rd57	VBAT#11	VBAT#5	    0.9375	$MET1	$X=9.525 $Y=6.865
Rd58	VBAT#13	VBAT#14	    1.8750	$MET1	$X=3.1 $Y=7.875
Re1	INN	INN#1	1.585E-02	$POLY1	$X=2.58 $Y=-0.3
Re2	avC7#9	avC7#10	   77.3240	$POLY1	$X=5.0545 $Y=6.405
Re3	avC7#10	avC7#11	   22.5125	$POLY1
+ $X=2.58 $Y=7.2635
Re4	avC7	avC7#10	    7.5000	$POLY1	$X=2.59 $Y=6.425
Re5	INP	INP#1	    0.5469	$POLY1	$X=6.31 $Y=-0.3065
Re6	avC8#11	avC8#4	   92.7778	$POLY1	$X=9.51 $Y=4.43
Re7	VBIAS#1	VBIAS	   63.2240	$POLY1	$X=9.046 $Y=-3.205
Re8	VBIAS	VBIAS#2	   61.5677	$POLY1	$X=5.3225 $Y=-3.205
*
*       CAP/DIODE CARDS
*
*
CavD66_1	avC8#12	VOUT#7	9.454E-13 
+ w=2e-05 perimeter=8e-05 l=2e-05 area=4e-10 
DavD157_1	VSS#5	VBAT#1	p_dnw#20auLvs#20PRIMLIB	7.66588e-11
+ 3.637e-05 	w=0 perimeter=3.637e-05 l=0
*
*
*       CAPACITOR CARDS
*
*
C2	VOUT	avC8#11	5.42978E-18	$X=10.426 $Y=3.653
C3	INN	VSS#5	1.3621E-16	$X=2.5805 $Y=-0.2895
C4	INP	VSS#5	6.27194E-17	$X=6.3095 $Y=-0.659
C5	avC8#10	VOUT	1.5207E-17	$X=9.844 $Y=2.68
C6	VBIAS	VSS#5	4.76038E-16	$X=7.1845 $Y=-3.203
C7	avC8#7	INP	1.12249E-17	$X=6.4755 $Y=-0.3375
C8	avC7#4	INN	3.1829E-17	$X=2.4345 $Y=-0.08
C9	avC9#4	INN	7.55336E-18	$X=3.1015 $Y=-0.685
C10	VOUT	VSS#5	1.95293E-16	$X=10.564 $Y=2.5835
C11	avC8#10	avC7#9	9.1103E-18	$X=6.969 $Y=5.605
C12	avC9#4	INP	3.89408E-18	$X=5.689 $Y=-0.8095
C13	avC8#12	VOUT	1.91845E-17	$X=10.568 $Y=2.583
C14	avC8#10	INP#1	7.24767E-18	$X=6.4995 $Y=0.42
C15	avC8#49	VSS#5	9.32527E-17	$X=17.894 $Y=3.094
C16	avC8#11	VSS#5	6.81485E-17	$X=10.042 $Y=6.63
C17	VBAT#5	avC8#11	1.01485E-16	$X=9.722 $Y=6.987
C18	VBIAS#1	VSS#5	1.99536E-16	$X=10.0445 $Y=-4.3825
C19	avC8#11	VBAT#1	6.87088E-17	$X=9.918 $Y=6.7125
C20	avC8#10	VOUT#4	5.0331E-18	$X=9.6685 $Y=1.338
C21	VBAT#8	avC7#9	6.82225E-17	$X=5.948 $Y=8.025
C22	VBAT#4	avC8#11	1.49589E-17	$X=9.2405 $Y=7.887
C23	VSS#4	VBIAS#1	1.2967E-17	$X=9.1805 $Y=-5.2935
C24	INP#1	VSS#5	6.6951E-17	$X=6.3095 $Y=0.0605
C25	avC7#9	VBAT#1	2.36352E-16	$X=6.318 $Y=7.6585
C26	VBAT#4	avC7#9	1.50704E-17	$X=6.6705 $Y=8.3895
C27	VBIAS#2	VSS#5	1.76418E-16	$X=4.3765 $Y=-4.3825
C28	VSS#4	VBIAS#2	1.2967E-17	$X=5.2295 $Y=-5.2845
C29	avC7#11	VBAT#1	2.75129E-17	$X=2.6325 $Y=8.187
C30	VBAT#4	avC7#11	1.50704E-17	$X=3.3325 $Y=8.512
C31	avC8#10	VSS#5	2.07201E-16	$X=7.838 $Y=2.9495
C32	VOUT#4	VSS#5	2.3301E-16	$X=10.564 $Y=0.5505
C33	avC8#7	INP#1	2.0584E-17	$X=6.481 $Y=0.155
C34	avC8#2	avC7#9	7.71441E-17	$X=6.5605 $Y=7.609
C35	avC8#6	VSS#5	1.8371E-16	$X=6.83 $Y=2.759
C36	avC8#49	VOUT	1.57099E-17	$X=10.826 $Y=2.6015
C37	VOUT#6	VBIAS#1	7.75645E-17	$X=10.2625 $Y=-4.2355
C38	avC9	VBIAS#2	7.75645E-17	$X=4.058 $Y=-4.0715
C39	VSS#1	VBIAS#1	6.96367E-17	$X=9.797 $Y=-4.5845
C40	VBAT#13	avC7#11	4.2329E-17	$X=2.7475 $Y=8.1335
C41	avC8#10	VBAT#11	1.32644E-17	$X=8.8235 $Y=5.199
C42	VSS#8	VBIAS#2	6.96057E-17	$X=4.6195 $Y=-4.5835
C43	avC8#12	VOUT#4	4.31468E-17	$X=10.569 $Y=0.5505
C44	avC9#4	VBIAS#2	1.21283E-17	$X=4.046 $Y=-2.4075
C45	avC8#7	VSS#5	8.5319E-17	$X=6.83 $Y=0.347
C46	avC8#10	avC7#4	2.18013E-17	$X=4.4285 $Y=1.467
C47	avC8#10	avC7#3	1.35481E-17	$X=4 $Y=4.279
C48	avC9	VSS#5	1.01275E-16	$X=3.8555 $Y=-3.8675
C49	VSS#4	avC9	1.66475E-17	$X=4.585 $Y=-4.631
C50	avC7#7	VBAT#1	4.77069E-18	$X=2.1045 $Y=7.8255
C51	avC7#7	VBAT#4	1.64645E-17	$X=2.7115 $Y=8.12
C52	VOUT#6	VSS#5	1.43737E-16	$X=10.549 $Y=-4.0355
C53	avC8#12	VSS#5	9.6774E-16	$X=18.366 $Y=2.8055
C54	VSS#4	VOUT#6	1.66475E-17	$X=9.3295 $Y=-5.254
C55	avC8#12	VSS#4	2.43805E-17	$X=7.2295 $Y=-7.3535
C56	avC8#12	VBAT#5	1.34287E-17	$X=9.531 $Y=7.2045
C57	avC7#4	VSS#5	2.51349E-16	$X=2.077 $Y=0.4445
C58	VBAT#8	avC8#2	9.62206E-17	$X=6.1065 $Y=8.017
C59	avC7#3	VSS#5	1.10646E-16	$X=2.0615 $Y=4.9515
C60	avC8#12	VBAT#1	2.79853E-18	$X=6.9675 $Y=8.732
C61	avC8#12	VBAT#4	2.21344E-17	$X=7.6515 $Y=10.402
C62	avC9#4	VSS#5	2.08492E-16	$X=3.8555 $Y=-1.253
C63	avC8#2	VBAT#1	6.57898E-17	$X=6.809 $Y=7.629
C64	avC8#2	VBAT#4	1.91526E-17	$X=7.039 $Y=8.3735
C65	avC7#7	VBAT#13	9.6122E-17	$X=2.34 $Y=7.8775
C66	avC7#3	VBAT#1	1.73118E-16	$X=2.1445 $Y=5.025
C67	avC8#12	VOUT#6	6.5978E-17	$X=10.5585 $Y=-4.035
C68	VSS#1	VOUT#6	1.01552E-16	$X=9.9865 $Y=-4.459
C69	avC8#12	VSS#1	1.54941E-17	$X=9.547 $Y=-4.789
C70	avC9	VSS#8	1.01552E-16	$X=4.242 $Y=-4.219
C71	avC8#49	VOUT#4	1.02003E-17	$X=10.916 $Y=0.671
C72	VOUT#7	VSS#1	1.33734E-17	$X=9.5505 $Y=-4.779
C73	VOUT#7	VSS#5	6.03277E-15	$X=14.265 $Y=1.963
C74	VOUT#2	VBAT#4	1.90261E-17	$X=9.822 $Y=7.286
C75	avC9#6	VSS#5	1.08889E-17	$X=3.1 $Y=-0.29
C76	VOUT#2	VBAT#1	1.7245E-17	$X=10.466 $Y=6.294
C77	VOUT#7	VBAT#1	5.33281E-18	$X=7.2285 $Y=8.3445
C78	VOUT#7	avC8#7	4.60193E-18	$X=6.836 $Y=0.348
C79	avC8#4	VSS#5	2.487E-16	$X=7.2385 $Y=4.534
C80	avC9#9	avC8#7	5.17801E-17	$X=6.2675 $Y=0.0025
C81	VBAT#5	avC8#4	8.069E-18	$X=8.6165 $Y=6.1465
C82	VOUT#7	VSS#4	2.34258E-17	$X=7.245 $Y=-7.3235
C83	VBAT#5	VOUT#2	1.9612E-16	$X=10.019 $Y=6.7415
C84	VOUT#7	VBAT#4	2.5975E-17	$X=7.6695 $Y=10.363
C85	VOUT#2	avC8#11	1.10864E-16	$X=10.3525 $Y=6.3915
C86	avC9#9	VSS#5	5.72466E-17	$X=5.79 $Y=-0.29
C87	avC7#4	avC9#6	4.98487E-17	$X=2.9135 $Y=-0.157
C88	avC8#12	VOUT#2	7.87578E-17	$X=10.571 $Y=6.226
C89	avC8#49	VOUT#7	2.24364E-16	$X=17.849 $Y=3.0525
C90	avC7	VBAT#1	4.36797E-16	$X=3.144 $Y=6.472
C91	avC9#9	VBIAS#2	4.92884E-18	$X=5.4165 $Y=-1.3685
C92	VOUT#2	VSS#5	4.79636E-17	$X=10.564 $Y=6.2275
C93	avC9#9	VBIAS	5.63819E-18	$X=6.144 $Y=-1.0325
C94	avC9#9	INP#1	1.19511E-17	$X=6.1185 $Y=-0.068
C95	VBAT#13	avC7	2.57253E-17	$X=3.0615 $Y=7.292
C96	avC9#9	INP	1.32031E-17	$X=6.1245 $Y=-0.528
C97	avC9#6	INN	2.33414E-17	$X=2.9145 $Y=-0.2905
C98	avC8#10	VOUT#7	8.46626E-18	$X=7.8575 $Y=2.9455
C99	VOUT#7	VBAT#5	1.82452E-17	$X=9.534 $Y=7.197
C100	avC8#4	VBAT#1	3.01308E-16	$X=7.2165 $Y=4.682
C101	avC8#49	VOUT#2	2.6856E-18	$X=11.045 $Y=6.0235
C102	INP	VSS	5.78278E-18	$X=6.309 $Y=-0.6595
C103	VBIAS	VSS	1.06749E-17	$X=7.1835 $Y=-3.2055
C104	avC8#11	VSS	1.41134E-18	$X=10.042 $Y=6.632
C105	VBIAS#1	VSS	3.33989E-18	$X=10.0445 $Y=-4.3855
C106	VOUT#7	VSS	2.47939E-18	$X=14.958 $Y=1.684
C107	avC8#7	VSS	4.89216E-18	$X=6.8295 $Y=0.347
C108	avC8#12	VSS	2.27185E-18	$X=23.749 $Y=2.297
*
*
.ENDS opamp2_kevin_extract
*
