*
*
*
*                       LINUX           Tue Dec 10 05:32:58 2019
*
*
*
*  PROGRAM  advgen
*
*  Name           : advgen - Quantus QRC - (64-bit)
*  Version        : 17.1.2-s041
*  Build Date     : Wed Aug 23 16:57:50 PDT 2017
*
*  HSPICE LIBRARY
*
*!LENGTH_UNITS METERS
*
*
*
*
.SUBCKT DREG_RF1 VSS in out
*
*
*  caps2d version: 10
*
*
*       CANONICAL RESISTOR AND CAP/DIODE CARDS
*
RavD90_1	in#2	out#2	  277.4810	rtot="****" lstrip=7.2265e-05
+ $SUB=VSS#2 
*
*       PARASITIC RESISTOR AND CAP/DIODE CARDS
*
Rd1	in#1	in	    1.9277	$MET1	$X=0.156 $Y=-2.18
Rd2	VSS	VSS#1	    0.1835	$MET1	$X=70.354 $Y=-4.385
Rd4	VSS#1	VSS#2	    7.5000	$MET1	$X=69.575 $Y=-4.385
Rd5	VSS#2	VSS#1	    7.5000	$MET1	$X=69.575 $Y=-4.385
Rd6	out	out#1	7.850E-02	$MET1	$X=74.4285 $Y=-2.18
Re1	in#2	in#1	    0.4148	$POLY1	$X=0.89 $Y=-2.18
Re2	out#1	out#2	    2.2898	$POLY1	$X=73.375 $Y=-2.18
*
*       CAPACITOR CARDS
*
*
C1	in	VSS#2	3.15234E-16	$X=-0.496 $Y=-2.1795
C2	out	VSS#2	3.66356E-16	$X=75.2575 $Y=-2.1795
C3	out#1	VSS#2	4.17778E-16	$X=73.606 $Y=-2.1795
C4	in#1	VSS#2	3.90292E-16	$X=0.7425 $Y=-2.1795
*
*
.ENDS DREG_RF1
*
