*
*
*
*                       LINUX           Mon Dec  9 18:21:37 2019
*
*
*
*  PROGRAM  advgen
*
*  Name           : advgen - Quantus QRC - (64-bit)
*  Version        : 17.1.2-s041
*  Build Date     : Wed Aug 23 16:57:50 PDT 2017
*
*  HSPICE LIBRARY
*
*!LENGTH_UNITS METERS
*
*
*

*
.SUBCKT pmos_cascode VDD VSS INN INP OUT
*
*
*  caps2d version: 10
*
*
*       TRANSISTOR CARDS
*
*
MavD44_1	avC6#6	avC6#10	VSS#28	VSS#2	nel#20ivpcell#20PRIMLIB
+ L=5e-07	W=5e-07
+ AD=2.4e-13	AS=2.4e-13	PD=1.96e-06	PS=1.96e-06
+ NRD=3.603E-01	NRS=3.603E-01	wtot=5e-07
MavD44_2	avC8#2	avC8#10	VSS#24	VSS#2	nel#20ivpcell#20PRIMLIB
+ L=5e-07	W=6.2e-06
+ AD=2.976e-12	AS=2.976e-12	PD=1.336e-05	PS=1.336e-05
+ NRD=2.790E-02	NRS=2.790E-02	wtot=6.2e-06
MavD44_3	avC7#10	avC8#8	avC14#3	VSS#2
+ nel#20ivpcell#20PRIMLIB	L=5e-07	W=2.5e-05
+ AD=1.2e-11	AS=1.2e-11	PD=5.096e-05	PS=5.096e-05
+ NRD=6.920E-03	NRS=6.920E-03	wtot=2.5e-05
MavD44_4	OUT#38	avC6#9	VSS#40	VSS#2	nel#20ivpcell#20PRIMLIB
+ L=5e-07	W=6.25e-05
+ AD=3e-11	AS=3e-11	PD=0.00012596	PS=0.00012596
+ NRD=2.768E-03	NRS=2.768E-03	wtot=6.25e-05
MavD44_5	avC17	avC9#17	VSS#36	VSS#2	nel#20ivpcell#20PRIMLIB
+ L=5e-07	W=1.25e-05
+ AD=6e-12	AS=6e-12	PD=2.596e-05	PS=2.596e-05
+ NRD=1.384E-02	NRS=1.384E-02	wtot=1.25e-05
MavD44_6	avC18#6	avC9#18	VSS#31	VSS#2
+ nel#20ivpcell#20PRIMLIB	L=5e-07	W=1.25e-05
+ AD=6e-12	AS=6e-12	PD=2.596e-05	PS=2.596e-05
+ NRD=1.384E-02	NRS=1.384E-02	wtot=1.25e-05
MavD44_7	avC20#4	avC11#11	avC18#11	VSS#2
+ nel#20ivpcell#20PRIMLIB	L=5e-07	W=6.2e-06
+ AD=2.976e-12	AS=2.976e-12	PD=1.336e-05	PS=1.336e-05
+ NRD=2.790E-02	NRS=2.790E-02	wtot=6.2e-06
MavD44_8	avC12	avC11#14	avC19	VSS#2	nel#20ivpcell#20PRIMLIB
+ L=5e-07	W=6.2e-06
+ AD=2.976e-12	AS=2.976e-12	PD=1.336e-05	PS=1.336e-05
+ NRD=2.790E-02	NRS=2.790E-02	wtot=6.2e-06
MavD44_9	avC11#8	avC11#13	VSS#20	VSS#2
+ nel#20ivpcell#20PRIMLIB	L=5e-07	W=1.5e-06
+ AD=7.2e-13	AS=7.2e-13	PD=3.96e-06	PS=3.96e-06
+ NRD=1.153E-01	NRS=1.153E-01	wtot=1.5e-06
MavD44_10	avC15	avC23#3	VSS#16	VSS#2	nel#20ivpcell#20PRIMLIB
+ L=5e-07	W=1e-06
+ AD=4.8e-13	AS=4.8e-13	PD=2.96e-06	PS=2.96e-06
+ NRD=1.730E-01	NRS=1.730E-01	wtot=1e-06
MavD44_11	avC10#12	avC9#13	VSS#8	VSS#2
+ nel#20ivpcell#20PRIMLIB	L=5e-07	W=6.2e-06
+ AD=2.976e-12	AS=2.976e-12	PD=1.336e-05	PS=1.336e-05
+ NRD=2.790E-02	NRS=2.790E-02	wtot=6.2e-06
MavD44_12	avC9#8	avC9#14	VSS#12	VSS#2	nel#20ivpcell#20PRIMLIB
+ L=5e-07	W=6.2e-06
+ AD=2.976e-12	AS=2.976e-12	PD=1.336e-05	PS=1.336e-05
+ NRD=2.790E-02	NRS=2.790E-02	wtot=6.2e-06
MavD46_1	avC21#5	avC12#10	VDD#37	VDD#27
+ pel#20ivpcell#20PRIMLIB	L=5e-07	W=1.55e-05
+ AD=7.44e-12	AS=7.44e-12	PD=3.196e-05	PS=3.196e-05
+ NRD=1.116E-02	NRS=1.116E-02	wtot=1.55e-05
MavD46_2	avC11	avC10#3	VDD#50	VDD#27	pel#20ivpcell#20PRIMLIB
+ L=5e-07	W=3.1e-05
+ AD=1.488e-11	AS=1.488e-11	PD=6.296e-05	PS=6.296e-05
+ NRD=5.581E-03	NRS=5.581E-03	wtot=3.1e-05
MavD46_3	avC15#4	avC10	VDD#46	VDD#27	pel#20ivpcell#20PRIMLIB
+ L=5e-07	W=3.1e-05
+ AD=1.488e-11	AS=1.488e-11	PD=6.296e-05	PS=6.296e-05
+ NRD=5.581E-03	NRS=5.581E-03	wtot=3.1e-05
MavD46_4	avC9	avC7	VDD#57	VDD#27	pel#20ivpcell#20PRIMLIB
+ L=5e-07	W=1.55e-05
+ AD=7.44e-12	AS=7.44e-12	PD=3.196e-05	PS=3.196e-05
+ NRD=1.116E-02	NRS=1.116E-02	wtot=1.55e-05
MavD46_5	avC16#9	avC7#3	VDD#40	VDD#27	pel#20ivpcell#20PRIMLIB
+ L=5e-07	W=3.1e-05
+ AD=1.488e-11	AS=1.488e-11	PD=6.296e-05	PS=6.296e-05
+ NRD=5.581E-03	NRS=5.581E-03	wtot=3.1e-05
MavD46_6	avC10#5	avC10#13	VDD#65	VDD#27
+ pel#20ivpcell#20PRIMLIB	L=5e-07	W=1.55e-05
+ AD=7.44e-12	AS=7.44e-12	PD=3.196e-05	PS=3.196e-05
+ NRD=1.116E-02	NRS=1.116E-02	wtot=1.55e-05
MavD46_7	avC18	INP#4	avC16	VDD#27	pel#20ivpcell#20PRIMLIB
+ L=5e-07	W=1.55e-05
+ AD=7.44e-12	AS=7.44e-12	PD=3.196e-05	PS=3.196e-05
+ NRD=1.116E-02	NRS=1.116E-02	wtot=1.55e-05
MavD46_8	avC17#5	INN#2	avC16#6	VDD#27
+ pel#20ivpcell#20PRIMLIB	L=5e-07	W=1.55e-05
+ AD=7.44e-12	AS=7.44e-12	PD=3.196e-05	PS=3.196e-05
+ NRD=1.116E-02	NRS=1.116E-02	wtot=1.55e-05
MavD46_9	avC20#7	avC23	avC22	VDD#27	pel#20ivpcell#20PRIMLIB
+ L=5e-07	W=1.55e-05
+ AD=7.44e-12	AS=7.44e-12	PD=3.196e-05	PS=3.196e-05
+ NRD=1.116E-02	NRS=1.116E-02	wtot=1.55e-05
MavD46_10	avC12#4	avC23#4	avC21	VDD#27
+ pel#20ivpcell#20PRIMLIB	L=5e-07	W=1.55e-05
+ AD=7.44e-12	AS=7.44e-12	PD=3.196e-05	PS=3.196e-05
+ NRD=1.116E-02	NRS=1.116E-02	wtot=1.55e-05
MavD46_11	avC22#5	avC12#9	VDD#34	VDD#27
+ pel#20ivpcell#20PRIMLIB	L=5e-07	W=1.55e-05
+ AD=7.44e-12	AS=7.44e-12	PD=3.196e-05	PS=3.196e-05
+ NRD=1.116E-02	NRS=1.116E-02	wtot=1.55e-05
MavD46_12	OUT#15	avC13	VDD#1	VDD#27	pel#20ivpcell#20PRIMLIB
+ L=5e-07	W=0.000155
+ AD=7.44e-11	AS=7.44e-11	PD=0.00031096	PS=0.00031096
+ NRD=1.116E-03	NRS=1.116E-03	wtot=0.000155
MavD46_13	avC6	avC7#19	VDD#63	VDD#27	pel#20ivpcell#20PRIMLIB
+ L=5e-07	W=1.55e-05
+ AD=7.44e-12	AS=7.44e-12	PD=3.196e-05	PS=3.196e-05
+ NRD=1.116E-02	NRS=1.116E-02	wtot=1.55e-05
MavD46_14	avC7#15	avC7#5	VDD#68	VDD#27	pel#20ivpcell#20PRIMLIB
+ L=5e-07	W=1.55e-05
+ AD=7.44e-12	AS=7.44e-12	PD=3.196e-05	PS=3.196e-05
+ NRD=1.116E-02	NRS=1.116E-02	wtot=1.55e-05
MavD46_15	avC8#5	avC7#7	VDD#60	VDD#27	pel#20ivpcell#20PRIMLIB
+ L=5e-07	W=1.55e-05
+ AD=7.44e-12	AS=7.44e-12	PD=3.196e-05	PS=3.196e-05
+ NRD=1.116E-02	NRS=1.116E-02	wtot=1.55e-05
*
*
*       CANONICAL RESISTOR AND CAP/DIODE CARDS
*
RavD102_1	avC20	avC24#15	  499.9556
+ rtot="****" lstrip=0.00376607
RavD102_2	avC14#2	VSS#7	 9999.9902
+ rtot="****" lstrip=0.0753247
*
*       PARASITIC RESISTOR AND CAP/DIODE CARDS
*
Rc1	avC10#10	avC10#4	    9.6574	$MET2
+ $X=484.915 $Y=-79.119
Rc2	VSS#22	VSS#21	    5.1124	$MET2	$X=488.6675 $Y=-114.4
Rc3	avC14#7	avC14	    2.3481	$MET2	$X=490.453 $Y=-172.375
Rc4	avC9#16	avC9#6	    7.5212	$MET2	$X=496.825 $Y=-112.23
Rc5	VSS#11	VSS#1	   16.1631	$MET2	$X=480.625 $Y=-173.991
Rc6	VSS#1	VSS#50	    2.7370	$MET2	$X=480.625 $Y=-211.48
Rc7	VSS#50	VSS#26	    7.9686	$MET2	$X=495.445 $Y=-193.2225
Rc8	VSS#50	VSS#30	    1.4811	$MET2	$X=500.0525 $Y=-212.725
Rc9	VSS#30	VSS#49	    0.7160	$MET2	$X=506.925 $Y=-212.725
Rc17	avC18#10	avC18#5	    6.6886	$MET2
+ $X=503.604 $Y=-105.025
Rc25	avC20#10	avC20#2	  110.9486	$MET2
+ $X=512.32 $Y=-154.0175
Rd1	avC20	avC20#2	    5.3361	$MET1	$X=207.6425 $Y=-323.115
Rd2	avC11#2	avC11#3	    1.5833	$MET1
+ $X=475.97 $Y=-60.745
Rd3	avC11#3	avC11#4	6.073E-02	$MET1
+ $X=475.97 $Y=-69.69
Rd4	avC11#4	avC11#5	1.867E-02	$MET1
+ $X=475.97 $Y=-69.69
Rd5	avC11#5	avC11#6	    2.1524	$MET1
+ $X=475.97 $Y=-76.27
Rd6	avC11#6	avC11#7	    2.1022	$MET1
+ $X=475.97 $Y=-86.73
Rd8	avC11#7	avC11#10	    7.9084	$MET1
+ $X=475.975 $Y=-90.1395
Rd9	avC11	avC11#2	    0.8333	$MET1	$X=475.97 $Y=-56.28
Rd10	avC11	avC11#3	    0.3947	$MET1	$X=475.97 $Y=-62.86
Rd11	avC11	avC11#5	    0.3947	$MET1	$X=475.97 $Y=-71.79
Rd12	avC11	avC11#6	    0.3947	$MET1	$X=475.97 $Y=-80.735
Rd13	avC11#8	avC11#7	    2.5000	$MET1
+ $X=475.975 $Y=-89.02
Rd14	avC10#2	avC10#4	   12.0000	$MET1
+ $X=480.64 $Y=-52.995
Rd15	VSS#1	VSS#3	   17.8308	$MET1	$X=467.805 $Y=-248.0005
Rd18	VSS#3	VSS#6	    1.7721	$MET1	$X=467.805 $Y=-304.4525
Rd19	VSS#6	VSS#7	    0.5142	$MET1	$X=462.7505 $Y=-308.805
Rd20	VSS#6	VSS	    0.1072	$MET1	$X=464.91 $Y=-309.505
Rd21	VSS#2	VSS#3	    7.5000	$MET1	$X=467.8 $Y=-298.03
Rd22	VSS#2	VSS#3	    7.5000	$MET1	$X=467.8 $Y=-298.03
Rd24	avC15#2	avC15#5	    1.9397	$MET1
+ $X=481.15 $Y=-86.55
Rd25	avC15#5	avC15#6	    2.1524	$MET1
+ $X=481.15 $Y=-76.07
Rd26	avC15#6	avC15#7	1.867E-02	$MET1
+ $X=481.15 $Y=-69.49
Rd27	avC15#7	avC15#8	6.073E-02	$MET1
+ $X=481.15 $Y=-69.49
Rd28	avC15#8	avC15#4	    2.4166	$MET1
+ $X=481.15 $Y=-60.545
Rd29	avC15	avC15#2	    3.7500	$MET1	$X=481.16 $Y=-88.61
Rd30	avC15#4	avC15#5	    0.3947	$MET1
+ $X=481.15 $Y=-80.535
Rd31	avC15#4	avC15#6	    0.3947	$MET1
+ $X=481.15 $Y=-71.59
Rd32	avC15#4	avC15#8	    0.3947	$MET1
+ $X=481.15 $Y=-62.66
Rd33	avC9#2	avC9#3	5.473E-02	$MET1	$X=481.165 $Y=-119.14
Rd34	avC9#3	avC9#4	2.912E-02	$MET1	$X=481.165 $Y=-119.14
Rd35	avC9#4	avC9#5	    1.3338	$MET1	$X=481.665 $Y=-127.8095
Rd36	avC9#5	avC9#6	    4.7926	$MET1	$X=480.88 $Y=-128.285
Rd37	avC9#5	avC9#7	    1.1388	$MET1	$X=481.665 $Y=-129.235
Rd39	avC9#7	avC9#10	    8.4691	$MET1	$X=481.665 $Y=-136.5045
Rd40	avC9	avC9#2	    0.5357	$MET1	$X=481.165 $Y=-114.655
Rd41	avC9	avC9#4	    0.3947	$MET1	$X=481.165 $Y=-122.43
Rd42	avC9#8	avC9#7	    0.5769	$MET1	$X=481.665 $Y=-133.045
Rd43	avC14	avC14#2	   58.2244	$MET1	$X=416.2145 $Y=-36.16
Rd45	VSS#9	VSS#11	    2.2977	$MET1	$X=483.86 $Y=-136.87
Rd46	VSS#11	VSS#13	    1.2485	$MET1	$X=480.585 $Y=-136.8125
Rd48	VSS#8	VSS#9	    0.5769	$MET1	$X=483.9 $Y=-133.045
Rd49	VSS#12	VSS#13	    0.5769	$MET1	$X=480.625 $Y=-133.045
Rd51	avC10#6	avC10#7	2.912E-02	$MET1
+ $X=484.94 $Y=-119.075
Rd52	avC10#7	avC10#8	5.473E-02	$MET1
+ $X=484.94 $Y=-119.075
Rd53	avC10#8	avC10#9	    1.0449	$MET1
+ $X=484.94 $Y=-110.8905
Rd54	avC10#9	avC10#10	    4.7550	$MET1
+ $X=484.94 $Y=-109.6025
Rd55	avC10#6	avC10#11	    2.5699	$MET1
+ $X=484.94 $Y=-128.3845
Rd56	avC10#11	avC10#12	    0.5769	$MET1
+ $X=484.94 $Y=-133.045
Rd57	avC10#5	avC10#6	    0.3947	$MET1
+ $X=484.94 $Y=-122.365
Rd58	avC10#5	avC10#8	    0.5357	$MET1
+ $X=484.94 $Y=-114.59
Rd60	VSS#15	VSS#18	    0.7164	$MET1	$X=480.1 $Y=-90.4345
Rd61	VSS#18	VSS#19	    1.4288	$MET1	$X=474.935 $Y=-90.515
Rd62	VSS#19	VSS#20	    2.5000	$MET1	$X=474.935 $Y=-89.02
Rd63	VSS#18	VSS#21	   12.8309	$MET1	$X=479.25 $Y=-98.365
Rd64	VSS#16	VSS#15	    3.7500	$MET1	$X=480.12 $Y=-88.61
Rd65	INN	INN#1	4.751E-02	$MET1	$X=490.017 $Y=-105.1
Rd66	INP#1	INP	1.419E-03	$MET1	$X=494.24 $Y=-105.175
Rd67	INP#2	INP#3	1.419E-03	$MET1	$X=494.66 $Y=-105.23
Rd68	INP#1	INP#3	4.587E-02	$MET1	$X=494.45 $Y=-105.1935
Rd70	VSS#23	VSS#26	    5.8794	$MET1	$X=495.445 $Y=-172.257
Rd71	VSS#24	VSS#23	    0.5769	$MET1	$X=495.45 $Y=-167.945
Rd72	avC16#2	avC16#3	2.912E-02	$MET1
+ $X=495.72 $Y=-96.13
Rd73	avC16#3	avC16#4	5.473E-02	$MET1
+ $X=495.72 $Y=-96.13
Rd74	avC16#4	avC16#5	    2.0332	$MET1
+ $X=495.725 $Y=-88.1575
Rd75	avC16#5	avC16#7	    1.7127	$MET1
+ $X=491.625 $Y=-86.23
Rd76	avC16#7	avC16#8	5.473E-02	$MET1
+ $X=490.68 $Y=-96.095
Rd77	avC16#8	avC16#6	    0.4239	$MET1
+ $X=490.68 $Y=-96.095
Rd78	avC16#5	avC16#10	    1.6450	$MET1
+ $X=492.585 $Y=-84.865
Rd79	avC16#10	avC16#11	    2.1524	$MET1
+ $X=492.585 $Y=-74.79
Rd80	avC16#11	avC16#12	1.867E-02	$MET1
+ $X=492.585 $Y=-68.21
Rd81	avC16#12	avC16#13	6.073E-02	$MET1
+ $X=492.585 $Y=-68.21
Rd82	avC16#13	avC16#9	    2.4166	$MET1
+ $X=492.585 $Y=-59.265
Rd83	avC16	avC16#2	    0.3947	$MET1	$X=495.72 $Y=-99.42
Rd84	avC16	avC16#4	    0.5357	$MET1	$X=495.72 $Y=-91.645
Rd85	avC16#6	avC16#7	    0.5357	$MET1
+ $X=490.68 $Y=-91.61
Rd86	avC16#9	avC16#10	    0.3947	$MET1
+ $X=492.585 $Y=-79.255
Rd87	avC16#9	avC16#11	    0.3947	$MET1
+ $X=492.585 $Y=-70.31
Rd88	avC16#9	avC16#13	    0.3947	$MET1
+ $X=492.585 $Y=-61.38
Rd90	avC8	avC8#4	    1.0617	$MET1	$X=496.49 $Y=-164.293
Rd91	avC8#4	avC8#6	    1.5582	$MET1	$X=496.49 $Y=-162.5875
Rd92	avC8#6	avC8#7	2.912E-02	$MET1	$X=496.48 $Y=-153.635
Rd93	avC8#7	avC8#5	    0.5904	$MET1	$X=496.48 $Y=-153.635
Rd94	avC8#2	avC8	    0.5769	$MET1	$X=496.49 $Y=-167.945
Rd95	avC8#5	avC8#6	    0.3947	$MET1	$X=496.48 $Y=-156.925
Rd96	avC18#2	avC18#3	5.473E-02	$MET1
+ $X=496.76 $Y=-96.13
Rd97	avC18#3	avC18#4	    0.7917	$MET1
+ $X=496.76 $Y=-96.13
Rd98	avC18#3	avC18#5	    6.5968	$MET1
+ $X=496.765 $Y=-104.3175
Rd99	avC18	avC18#2	    0.5357	$MET1	$X=496.76 $Y=-91.645
Rd100	avC18	avC18#4	    0.3947	$MET1	$X=496.76 $Y=-99.42
Rd101	avC14#4	avC14#5	    0.1022	$MET1
+ $X=500.35 $Y=-177.285
Rd102	avC14#6	avC14#5	    0.2376	$MET1
+ $X=500.35 $Y=-177.285
Rd103	avC14#5	avC14#3	    0.4653	$MET1
+ $X=500.35 $Y=-177.285
Rd104	avC14#5	avC14#7	    4.9128	$MET1
+ $X=499.1 $Y=-172.375
Rd105	avC14#3	avC14#4	    0.5000	$MET1
+ $X=500.35 $Y=-168.285
Rd106	avC14#3	avC14#6	    0.3947	$MET1
+ $X=500.35 $Y=-176.2975
Rd107	avC9#15	avC9#16	   12.0000	$MET1
+ $X=501.425 $Y=-112.3
Rd109	avC21#2	avC21#3	2.912E-02	$MET1
+ $X=501.99 $Y=-81.115
Rd110	avC21#3	avC21#4	5.473E-02	$MET1
+ $X=501.99 $Y=-81.115
Rd111	avC21#4	avC21#6	    2.8021	$MET1
+ $X=501.99 $Y=-71.53
Rd112	avC21#6	avC21#7	2.912E-02	$MET1
+ $X=501.98 $Y=-61.945
Rd113	avC21#7	avC21#5	    0.5904	$MET1
+ $X=501.98 $Y=-61.945
Rd114	avC21	avC21#2	    0.3947	$MET1	$X=501.99 $Y=-84.405
Rd115	avC21	avC21#4	    0.5357	$MET1	$X=501.99 $Y=-76.63
Rd116	avC21#5	avC21#6	    0.3947	$MET1
+ $X=501.98 $Y=-65.235
Rd117	avC17#2	avC17#3	1.752E-02	$MET1
+ $X=501.925 $Y=-119.765
Rd118	avC17#3	avC17#4	    1.0491	$MET1
+ $X=501.925 $Y=-119.765
Rd119	avC17#3	avC17#6	    6.0907	$MET1
+ $X=502.235 $Y=-113.755
Rd120	avC17#6	avC17#7	2.912E-02	$MET1
+ $X=491.72 $Y=-96.095
Rd121	avC17#7	avC17#5	    0.5904	$MET1
+ $X=491.72 $Y=-96.095
Rd122	avC17	avC17#2	    0.4167	$MET1	$X=501.925 $Y=-121.685
Rd123	avC17	avC17#4	    0.9375	$MET1	$X=501.925 $Y=-115.405
Rd124	avC17#5	avC17#6	    0.3947	$MET1
+ $X=491.72 $Y=-99.385
Rd126	avC12#2	avC12#5	    2.4733	$MET1
+ $X=502.98 $Y=-90.2205
Rd127	avC12#5	avC12#6	2.912E-02	$MET1
+ $X=503.03 $Y=-81.115
Rd128	avC12#6	avC12#7	5.473E-02	$MET1
+ $X=503.03 $Y=-81.115
Rd129	avC12#7	avC12#8	    8.7194	$MET1
+ $X=503.03 $Y=-72.568
Rd130	avC12	avC12#2	    0.5769	$MET1	$X=502.98 $Y=-94.675
Rd131	avC12#4	avC12#5	    0.3947	$MET1
+ $X=503.03 $Y=-84.405
Rd132	avC12#4	avC12#7	    0.5357	$MET1
+ $X=503.03 $Y=-76.63
Rd134	VSS#27	VSS#30	    5.4835	$MET1	$X=504.685 $Y=-210.5795
Rd135	VSS#28	VSS#27	    7.5000	$MET1	$X=504.685 $Y=-208.535
Rd136	avC7#9	avC7#11	   10.2983	$MET1	$X=503.9125 $Y=-187.83
Rd137	avC7#11	avC7#12	7.053E-02	$MET1
+ $X=501.39 $Y=-177.285
Rd138	avC7#12	avC7#13	8.735E-03	$MET1
+ $X=501.39 $Y=-177.285
Rd139	avC7#13	avC7#14	    1.9280	$MET1
+ $X=501.39 $Y=-172.7725
Rd140	avC7#14	avC7#16	    2.7335	$MET1
+ $X=501.39 $Y=-163.0855
Rd141	avC7#16	avC7#17	2.912E-02	$MET1
+ $X=501.39 $Y=-153.635
Rd142	avC7#17	avC7#18	5.473E-02	$MET1
+ $X=501.39 $Y=-153.635
Rd143	avC7#18	avC7#8	    1.0252	$MET1	$X=501.39 $Y=-145.478
Rd144	avC7#8	avC7#2	    6.8109	$MET1	$X=501.39 $Y=-141.45
Rd145	avC7#2	avC7#4	   10.1081	$MET1	$X=488.34 $Y=-106.5175
Rd146	avC7#10	avC7#11	    0.3947	$MET1
+ $X=501.39 $Y=-185.3
Rd147	avC7#10	avC7#13	    0.3947	$MET1
+ $X=501.39 $Y=-176.2975
Rd148	avC7#10	avC7#14	    0.5000	$MET1
+ $X=501.39 $Y=-168.285
Rd149	avC7#15	avC7#16	    0.3947	$MET1
+ $X=501.39 $Y=-156.925
Rd150	avC7#15	avC7#18	    0.5357	$MET1
+ $X=501.39 $Y=-149.15
Rd151	avC6#2	avC6#3	5.473E-02	$MET1	$X=505.735 $Y=-197.8
Rd152	avC6#3	avC6#4	2.912E-02	$MET1	$X=505.735 $Y=-197.8
Rd153	avC6#4	avC6#5	    1.3948	$MET1	$X=505.73 $Y=-205.51
Rd154	avC6#5	avC6#7	    0.3626	$MET1	$X=505.725 $Y=-207.8025
Rd156	avC6	avC6#2	    0.5357	$MET1	$X=505.735 $Y=-193.315
Rd157	avC6	avC6#4	    0.3947	$MET1	$X=505.735 $Y=-201.09
Rd158	avC6#6	avC6#7	    7.5000	$MET1	$X=505.725 $Y=-208.535
Rd159	avC22#2	avC22#3	2.912E-02	$MET1
+ $X=506.81 $Y=-81.115
Rd160	avC22#3	avC22#4	5.473E-02	$MET1
+ $X=506.81 $Y=-81.115
Rd161	avC22#4	avC22#6	    2.6758	$MET1
+ $X=506.805 $Y=-71.6425
Rd162	avC22#6	avC22#7	2.912E-02	$MET1
+ $X=506.805 $Y=-62.17
Rd163	avC22#7	avC22#5	    0.5904	$MET1
+ $X=506.805 $Y=-62.17
Rd164	avC22	avC22#2	    0.3947	$MET1	$X=506.81 $Y=-84.405
Rd165	avC22	avC22#4	    0.5357	$MET1	$X=506.81 $Y=-76.63
Rd166	avC22#5	avC22#6	    0.3947	$MET1
+ $X=506.805 $Y=-65.46
Rd167	VSS#32	VSS#33	9.430E-02	$MET1	$X=509.355 $Y=-119.665
Rd168	VSS#33	VSS#34	    0.4620	$MET1	$X=509.355 $Y=-119.665
Rd169	VSS#33	VSS#35	    2.2267	$MET1	$X=507.765 $Y=-125.68
Rd170	VSS#35	VSS#37	    3.3228	$MET1	$X=503.5825 $Y=-132.09
Rd171	VSS#37	VSS#38	1.752E-02	$MET1	$X=500.885 $Y=-119.765
Rd172	VSS#38	VSS#39	    1.0491	$MET1	$X=500.885 $Y=-119.765
Rd173	VSS#35	VSS#41	    5.1328	$MET1	$X=507.68 $Y=-132.09
Rd174	VSS#41	VSS#42	    2.1488	$MET1	$X=509.185 $Y=-155.07
Rd175	VSS#42	VSS#43	    2.1488	$MET1	$X=509.185 $Y=-164
Rd176	VSS#43	VSS#44	    2.1488	$MET1	$X=509.185 $Y=-172.93
Rd178	VSS#44	VSS#46	7.922E-02	$MET1	$X=509.185 $Y=-177.415
Rd179	VSS#46	VSS#47	    2.1488	$MET1	$X=509.185 $Y=-190.79
Rd180	VSS#47	VSS#48	    2.1536	$MET1	$X=509.185 $Y=-199.74
Rd181	VSS#48	VSS#49	    6.5254	$MET1	$X=509.185 $Y=-210.5395
Rd182	VSS#38	VSS#22	    2.9278	$MET1	$X=495.5675 $Y=-114.39
Rd183	VSS#31	VSS#32	    0.9375	$MET1	$X=509.355 $Y=-115.305
Rd184	VSS#31	VSS#34	    0.4167	$MET1	$X=509.355 $Y=-121.585
Rd185	VSS#36	VSS#37	    0.4167	$MET1	$X=500.885 $Y=-121.685
Rd186	VSS#36	VSS#39	    0.9375	$MET1	$X=500.885 $Y=-115.405
Rd187	VSS#40	VSS#41	    0.3947	$MET1	$X=509.185 $Y=-150.605
Rd188	VSS#40	VSS#42	    0.3947	$MET1	$X=509.185 $Y=-159.535
Rd189	VSS#40	VSS#43	    0.3947	$MET1	$X=509.185 $Y=-168.465
Rd190	VSS#40	VSS#44	    0.3947	$MET1	$X=509.185 $Y=-177.395
Rd191	VSS#40	VSS#46	    0.3947	$MET1	$X=509.185 $Y=-186.325
Rd192	VSS#40	VSS#47	    0.3947	$MET1	$X=509.185 $Y=-195.255
Rd193	VSS#40	VSS#48	    0.3947	$MET1	$X=509.185 $Y=-204.205
Rd194	avC18#7	avC18#8	1.752E-02	$MET1
+ $X=510.395 $Y=-119.665
Rd195	avC18#8	avC18#9	9.430E-02	$MET1
+ $X=510.395 $Y=-119.665
Rd196	avC18#9	avC18#10	    2.5926	$MET1
+ $X=510.395 $Y=-109.35
Rd197	avC18#10	avC18#12	    3.4101	$MET1
+ $X=510.395 $Y=-101.9525
Rd199	avC18#6	avC18#7	    0.4167	$MET1
+ $X=510.395 $Y=-121.585
Rd200	avC18#6	avC18#9	    0.9375	$MET1
+ $X=510.395 $Y=-115.305
Rd201	avC18#11	avC18#12	    0.5769	$MET1
+ $X=506.86 $Y=-94.685
Rd203	avC20#3	avC20#6	    1.2390	$MET1
+ $X=507.9 $Y=-90.873
Rd204	avC20#6	avC20#8	    1.2062	$MET1
+ $X=507.875 $Y=-88.825
Rd205	avC20#8	avC20#9	2.912E-02	$MET1
+ $X=507.85 $Y=-81.115
Rd206	avC20#9	avC20#7	    0.5904	$MET1
+ $X=507.85 $Y=-81.115
Rd207	avC20#6	avC20#10	    5.2106	$MET1
+ $X=510.08 $Y=-89.87
Rd208	avC20#4	avC20#3	    0.5769	$MET1
+ $X=507.9 $Y=-94.685
Rd209	avC20#7	avC20#8	    0.3947	$MET1
+ $X=507.85 $Y=-84.405
Rd210	VDD#2	VDD#3	    2.1716	$MET1	$X=516.285 $Y=-199.8175
Rd211	VDD#3	VDD#4	    2.1716	$MET1	$X=516.285 $Y=-190.7925
Rd212	VDD#4	VDD#5	    2.1716	$MET1	$X=516.285 $Y=-181.7675
Rd213	VDD#5	VDD#6	    2.1656	$MET1	$X=516.285 $Y=-172.7675
Rd214	VDD#6	VDD#7	    2.1536	$MET1	$X=516.285 $Y=-163.79
Rd215	VDD#7	VDD#8	    2.1488	$MET1	$X=516.285 $Y=-154.84
Rd216	VDD#8	VDD#9	    2.1488	$MET1	$X=516.285 $Y=-145.91
Rd217	VDD#9	VDD#10	    2.1488	$MET1	$X=516.285 $Y=-136.98
Rd218	VDD#10	VDD#11	1.067E-02	$MET1	$X=516.285 $Y=-131.315
Rd219	VDD#11	VDD#12	6.873E-02	$MET1	$X=516.285 $Y=-131.315
Rd220	VDD#12	VDD#13	    2.1488	$MET1	$X=516.285 $Y=-119.12
Rd221	VDD#13	VDD#14	    2.1488	$MET1	$X=516.285 $Y=-110.19
Rd222	VDD#14	VDD#15	    2.1488	$MET1	$X=516.285 $Y=-101.26
Rd223	VDD#15	VDD#16	    2.1488	$MET1	$X=516.285 $Y=-92.33
Rd224	VDD#16	VDD#17	    2.1488	$MET1	$X=516.285 $Y=-83.4
Rd225	VDD#17	VDD#18	    2.1488	$MET1	$X=516.285 $Y=-74.47
Rd226	VDD#18	VDD#19	    2.1488	$MET1	$X=516.285 $Y=-65.54
Rd227	VDD#19	VDD#20	    1.4137	$MET1	$X=516.285 $Y=-59.665
Rd228	VDD#20	VDD#21	    2.8758	$MET1	$X=514.5205 $Y=-46.365
Rd229	VDD#21	VDD#22	    0.3775	$MET1	$X=503.3525 $Y=-46.365
Rd230	VDD#22	VDD#23	    0.7366	$MET1	$X=496.2425 $Y=-46.365
Rd231	VDD#23	VDD#24	    0.2036	$MET1	$X=490.23 $Y=-46.365
Rd232	VDD#24	VDD#25	    0.7689	$MET1	$X=484.0425 $Y=-46.365
Rd233	VDD#25	VDD#26	    0.3284	$MET1	$X=477.03 $Y=-46.365
Rd234	VDD#26	VDD#28	    0.5058	$MET1	$X=473.4825 $Y=-46.365
Rd237	VDD#28	VDD#31	    4.5228	$MET1	$X=471.705 $Y=-78.6825
Rd238	VDD#31	VDD#32	    4.3304	$MET1	$X=471.705 $Y=-125.8075
Rd239	VDD#32	VDD#33	    5.8481	$MET1	$X=497.9575 $Y=-191.915
Rd240	VDD#21	VDD#35	    2.6379	$MET1	$X=505.765 $Y=-50.6625
Rd241	VDD#35	VDD#36	5.473E-02	$MET1	$X=505.765 $Y=-62.17
Rd242	VDD#36	VDD#34	    0.4239	$MET1	$X=505.765 $Y=-62.17
Rd243	VDD#22	VDD#38	    2.5838	$MET1	$X=500.94 $Y=-50.55
Rd244	VDD#38	VDD#39	5.473E-02	$MET1	$X=500.94 $Y=-61.945
Rd245	VDD#39	VDD#37	    0.4239	$MET1	$X=500.94 $Y=-61.945
Rd246	VDD#23	VDD#41	    1.9437	$MET1	$X=491.545 $Y=-49.8075
Rd247	VDD#41	VDD#42	    1.5833	$MET1	$X=491.545 $Y=-59.265
Rd248	VDD#42	VDD#43	6.073E-02	$MET1	$X=491.545 $Y=-68.21
Rd249	VDD#43	VDD#44	1.867E-02	$MET1	$X=491.545 $Y=-68.21
Rd250	VDD#44	VDD#40	    2.5471	$MET1	$X=491.545 $Y=-74.79
Rd251	VDD#24	VDD	    0.5849	$MET1	$X=488.935 $Y=-45.0625
Rd252	VDD#25	VDD#45	    1.9531	$MET1	$X=479.13 $Y=-50.3625
Rd253	VDD#47	VDD#48	    1.5833	$MET1	$X=480.11 $Y=-61.485
Rd254	VDD#48	VDD#45	6.073E-02	$MET1	$X=480.11 $Y=-69.49
Rd255	VDD#45	VDD#49	1.867E-02	$MET1	$X=480.11 $Y=-69.49
Rd256	VDD#49	VDD#46	    2.5471	$MET1	$X=480.11 $Y=-76.07
Rd257	VDD#26	VDD#51	    2.2998	$MET1	$X=474.93 $Y=-50.5475
Rd258	VDD#51	VDD#52	    1.5833	$MET1	$X=474.93 $Y=-60.745
Rd259	VDD#52	VDD#53	6.073E-02	$MET1	$X=474.93 $Y=-69.69
Rd260	VDD#53	VDD#54	1.867E-02	$MET1	$X=474.93 $Y=-69.69
Rd261	VDD#54	VDD#50	    2.5471	$MET1	$X=474.93 $Y=-76.27
Rd262	VDD#31	VDD#55	    0.6271	$MET1	$X=476.07 $Y=-107.65
Rd263	VDD#55	VDD#56	    2.5697	$MET1	$X=480.105 $Y=-109.79
Rd264	VDD#58	VDD#56	    1.0792	$MET1	$X=480.125 $Y=-119.14
Rd265	VDD#56	VDD#57	    0.4239	$MET1	$X=480.125 $Y=-119.14
Rd266	VDD#32	VDD#59	    0.6976	$MET1	$X=493.37 $Y=-143.675
Rd267	VDD#59	VDD#61	    1.2747	$MET1	$X=495.44 $Y=-144.925
Rd268	VDD#61	VDD#62	5.473E-02	$MET1	$X=495.44 $Y=-153.635
Rd269	VDD#62	VDD#60	    0.4239	$MET1	$X=495.44 $Y=-153.635
Rd270	VDD#64	VDD#33	    1.0792	$MET1	$X=504.695 $Y=-197.8
Rd271	VDD#33	VDD#63	    0.4239	$MET1	$X=504.695 $Y=-197.8
Rd272	VDD#55	VDD#66	    1.8936	$MET1	$X=483.9 $Y=-109.7575
Rd273	VDD#66	VDD#67	5.473E-02	$MET1	$X=483.9 $Y=-119.075
Rd274	VDD#67	VDD#65	    0.4239	$MET1	$X=483.9 $Y=-119.075
Rd275	VDD#59	VDD#69	    2.0607	$MET1	$X=500.35 $Y=-144.925
Rd276	VDD#69	VDD#70	5.473E-02	$MET1	$X=500.35 $Y=-153.635
Rd277	VDD#70	VDD#68	    0.4239	$MET1	$X=500.35 $Y=-153.635
Rd278	VDD#1	VDD#2	    0.3947	$MET1	$X=516.285 $Y=-204.33
Rd279	VDD#1	VDD#3	    0.3947	$MET1	$X=516.285 $Y=-195.305
Rd280	VDD#1	VDD#4	    0.3947	$MET1	$X=516.285 $Y=-186.28
Rd281	VDD#1	VDD#5	    0.3947	$MET1	$X=516.285 $Y=-177.255
Rd282	VDD#1	VDD#6	    0.3947	$MET1	$X=516.285 $Y=-168.255
Rd283	VDD#1	VDD#7	    0.3947	$MET1	$X=516.285 $Y=-159.305
Rd284	VDD#1	VDD#8	    0.3947	$MET1	$X=516.285 $Y=-150.375
Rd285	VDD#1	VDD#9	    0.3947	$MET1	$X=516.285 $Y=-141.445
Rd286	VDD#1	VDD#10	    0.3947	$MET1	$X=516.285 $Y=-132.515
Rd287	VDD#1	VDD#12	    0.3947	$MET1	$X=516.285 $Y=-123.585
Rd288	VDD#1	VDD#13	    0.3947	$MET1	$X=516.285 $Y=-114.655
Rd289	VDD#1	VDD#14	    0.3947	$MET1	$X=516.285 $Y=-105.725
Rd290	VDD#1	VDD#15	    0.3947	$MET1	$X=516.285 $Y=-96.795
Rd291	VDD#1	VDD#16	    0.3947	$MET1	$X=516.285 $Y=-87.865
Rd292	VDD#1	VDD#17	    0.3947	$MET1	$X=516.285 $Y=-78.935
Rd293	VDD#1	VDD#18	    0.3947	$MET1	$X=516.285 $Y=-70.005
Rd294	VDD#1	VDD#19	    0.3947	$MET1	$X=516.285 $Y=-61.075
Rd295	VDD#1	VDD#20	    1.2500	$MET1	$X=516.285 $Y=-55.2
Rd296	VDD#27	VDD#28	    7.5000	$MET1	$X=471.715 $Y=-50.04
Rd297	VDD#27	VDD#28	    7.5000	$MET1	$X=471.715 $Y=-50.04
Rd298	VDD#34	VDD#35	    0.5357	$MET1	$X=505.765 $Y=-57.685
Rd299	VDD#37	VDD#38	    0.5357	$MET1	$X=500.94 $Y=-57.46
Rd300	VDD#40	VDD#41	    0.8333	$MET1	$X=491.545 $Y=-54.8
Rd301	VDD#40	VDD#42	    0.3947	$MET1	$X=491.545 $Y=-61.38
Rd302	VDD#40	VDD#44	    0.3947	$MET1	$X=491.545 $Y=-70.31
Rd303	VDD#46	VDD#47	    0.8333	$MET1	$X=480.11 $Y=-56.08
Rd304	VDD#46	VDD#48	    0.3947	$MET1	$X=480.11 $Y=-62.66
Rd305	VDD#46	VDD#49	    0.3947	$MET1	$X=480.11 $Y=-71.59
Rd306	VDD#50	VDD#51	    0.8333	$MET1	$X=474.93 $Y=-56.28
Rd307	VDD#50	VDD#52	    0.3947	$MET1	$X=474.93 $Y=-62.86
Rd308	VDD#50	VDD#54	    0.3947	$MET1	$X=474.93 $Y=-71.79
Rd309	VDD#57	VDD#58	    0.5357	$MET1	$X=480.125 $Y=-114.655
Rd310	VDD#60	VDD#61	    0.5357	$MET1	$X=495.44 $Y=-149.15
Rd311	VDD#63	VDD#64	    0.5357	$MET1	$X=504.695 $Y=-193.315
Rd312	VDD#65	VDD#66	    0.5357	$MET1	$X=483.9 $Y=-114.59
Rd313	VDD#68	VDD#69	    0.5357	$MET1	$X=500.35 $Y=-149.15
Rd314	OUT#16	OUT#17	    1.4137	$MET1	$X=517.325 $Y=-59.665
Rd315	OUT#17	OUT#18	    2.1488	$MET1	$X=517.325 $Y=-65.54
Rd316	OUT#18	OUT#19	    2.1488	$MET1	$X=517.325 $Y=-74.47
Rd317	OUT#19	OUT#20	    2.1488	$MET1	$X=517.325 $Y=-83.4
Rd318	OUT#20	OUT#21	    2.1488	$MET1	$X=517.325 $Y=-92.33
Rd319	OUT#21	OUT#22	    2.1488	$MET1	$X=517.325 $Y=-101.26
Rd320	OUT#22	OUT#23	    2.1488	$MET1	$X=517.325 $Y=-110.19
Rd321	OUT#23	OUT#24	    2.1488	$MET1	$X=517.325 $Y=-119.12
Rd322	OUT#24	OUT#25	6.873E-02	$MET1	$X=517.325 $Y=-131.315
Rd323	OUT#25	OUT#26	1.067E-02	$MET1	$X=517.325 $Y=-131.315
Rd324	OUT#26	OUT#27	    2.1488	$MET1	$X=517.325 $Y=-136.98
Rd325	OUT#27	OUT#28	    2.1488	$MET1	$X=517.325 $Y=-145.91
Rd326	OUT#28	OUT#29	    2.1488	$MET1	$X=517.325 $Y=-154.84
Rd327	OUT#29	OUT#30	    2.1536	$MET1	$X=517.325 $Y=-163.79
Rd328	OUT#30	OUT#31	    2.1656	$MET1	$X=517.325 $Y=-172.7675
Rd329	OUT#31	OUT#32	    2.1716	$MET1	$X=517.325 $Y=-181.7675
Rd330	OUT#32	OUT#33	    2.1716	$MET1	$X=517.325 $Y=-190.7925
Rd331	OUT#33	OUT#34	    2.1716	$MET1	$X=517.325 $Y=-199.8175
Rd332	OUT#34	OUT#35	    2.4670	$MET1	$X=517.325 $Y=-209.145
Rd333	OUT#35	OUT#36	    6.5436	$MET1	$X=512.695 $Y=-230.4925
Rd334	OUT#36	OUT#1	    0.1759	$MET1	$X=512.465 $Y=-251.025
Rd335	OUT#35	OUT#39	    1.9512	$MET1	$X=511.42 $Y=-210.04
Rd336	OUT#39	OUT#40	    2.1536	$MET1	$X=510.225 $Y=-199.74
Rd337	OUT#40	OUT#41	    2.1488	$MET1	$X=510.225 $Y=-190.79
Rd338	OUT#41	OUT#42	7.922E-02	$MET1	$X=510.225 $Y=-177.415
Rd339	OUT#42	OUT	2.085E-03	$MET1	$X=510.225 $Y=-177.415
Rd340	OUT	OUT#43	1.123E-03	$MET1	$X=510.225 $Y=-177.395
Rd341	OUT#42	OUT#44	7.958E-02	$MET1	$X=510.225 $Y=-177.415
Rd342	OUT#42	OUT#45	    0.1590	$MET1	$X=510.225 $Y=-177.415
Rd343	OUT#42	OUT#38	    0.6331	$MET1	$X=510.225 $Y=-177.415
Rd344	OUT#36	OUT#46	    1.2780	$MET1	$X=512.695 $Y=-255.0325
Rd345	OUT#46	OUT#47	    1.2788	$MET1	$X=512.695 $Y=-263.05
Rd346	OUT#47	OUT#48	    1.2804	$MET1	$X=512.695 $Y=-271.075
Rd347	OUT#48	OUT#49	    1.2884	$MET1	$X=512.695 $Y=-279.13
Rd348	OUT#49	OUT#50	    1.2781	$MET1	$X=512.695 $Y=-287.19
Rd349	OUT#50	OUT#13	    1.7520	$MET1	$X=512.695 $Y=-295.21
Rd350	OUT#46	OUT#4	    0.1762	$MET1	$X=512.465 $Y=-259.04
Rd351	OUT#47	OUT#5	    0.1765	$MET1	$X=512.465 $Y=-267.06
Rd352	OUT#48	OUT#8	    0.1767	$MET1	$X=512.465 $Y=-275.09
Rd353	OUT#49	OUT#9	    0.1761	$MET1	$X=512.465 $Y=-283.17
Rd354	OUT#50	OUT#12	    0.2135	$MET1	$X=512.465 $Y=-291.17
Rd362	OUT#15	OUT#16	    1.2500	$MET1	$X=517.325 $Y=-55.2
Rd363	OUT#15	OUT#17	    0.3947	$MET1	$X=517.325 $Y=-61.075
Rd364	OUT#15	OUT#18	    0.3947	$MET1	$X=517.325 $Y=-70.005
Rd365	OUT#15	OUT#19	    0.3947	$MET1	$X=517.325 $Y=-78.935
Rd366	OUT#15	OUT#20	    0.3947	$MET1	$X=517.325 $Y=-87.865
Rd367	OUT#15	OUT#21	    0.3947	$MET1	$X=517.325 $Y=-96.795
Rd368	OUT#15	OUT#22	    0.3947	$MET1	$X=517.325 $Y=-105.725
Rd369	OUT#15	OUT#23	    0.3947	$MET1	$X=517.325 $Y=-114.655
Rd370	OUT#15	OUT#24	    0.3947	$MET1	$X=517.325 $Y=-123.585
Rd371	OUT#15	OUT#26	    0.3947	$MET1	$X=517.325 $Y=-132.515
Rd372	OUT#15	OUT#27	    0.3947	$MET1	$X=517.325 $Y=-141.445
Rd373	OUT#15	OUT#28	    0.3947	$MET1	$X=517.325 $Y=-150.375
Rd374	OUT#15	OUT#29	    0.3947	$MET1	$X=517.325 $Y=-159.305
Rd375	OUT#15	OUT#30	    0.3947	$MET1	$X=517.325 $Y=-168.255
Rd376	OUT#15	OUT#31	    0.3947	$MET1	$X=517.325 $Y=-177.255
Rd377	OUT#15	OUT#32	    0.3947	$MET1	$X=517.325 $Y=-186.28
Rd378	OUT#15	OUT#33	    0.3947	$MET1	$X=517.325 $Y=-195.305
Rd379	OUT#15	OUT#34	    0.3947	$MET1	$X=517.325 $Y=-204.33
Rd380	OUT#38	OUT#39	    0.3947	$MET1	$X=510.225 $Y=-204.205
Rd381	OUT#38	OUT#40	    0.3947	$MET1	$X=510.225 $Y=-195.255
Rd382	OUT#38	OUT#41	    0.3947	$MET1	$X=510.225 $Y=-186.325
Rd383	OUT#38	OUT#43	    0.3947	$MET1	$X=510.225 $Y=-177.395
Rd384	OUT#38	OUT#44	    0.3947	$MET1	$X=510.225 $Y=-168.465
Rd385	OUT#38	OUT#45	    0.3947	$MET1	$X=510.225 $Y=-159.535
Rd386	avC24#15	avC24#16	   79.8135	$MET1
+ $X=716.2525 $Y=-317.835
Rd387	avC24#16	avC24#17	    1.5151	$MET1
+ $X=485.74 $Y=-295.2575
Rd388	avC24#17	avC24#18	    1.2872	$MET1
+ $X=485.74 $Y=-287.2675
Rd389	avC24#18	avC24#19	    1.2814	$MET1
+ $X=485.74 $Y=-279.1925
Rd390	avC24#19	avC24#20	    1.2774	$MET1
+ $X=485.74 $Y=-271.16
Rd391	avC24#20	avC24#21	    1.2790	$MET1
+ $X=485.74 $Y=-263.135
Rd392	avC24#21	avC24	    1.4200	$MET1	$X=485.74 $Y=-255.0975
Rd393	avC24#16	avC24#13	    0.1683	$MET1
+ $X=486.305 $Y=-299.235
Rd394	avC24#17	avC24#12	    0.1670	$MET1
+ $X=486.305 $Y=-291.28
Rd395	avC24#18	avC24#9	    0.1386	$MET1
+ $X=486.305 $Y=-283.215
Rd396	avC24#19	avC24#8	    0.1386	$MET1
+ $X=486.305 $Y=-275.17
Rd397	avC24#20	avC24#5	    0.1385	$MET1
+ $X=486.305 $Y=-267.15
Rd398	avC24#21	avC24#4	    0.1385	$MET1
+ $X=486.305 $Y=-259.12
Re1	avC10	avC10#2	  260.8871	$POLY1	$X=480.655 $Y=-53.4875
Re2	avC10#2	avC10#3	  363.2062	$POLY1
+ $X=478.045 $Y=-52.995
Re3	avC9#13	avC9#11	   65.7844	$POLY1
+ $X=484.44 $Y=-136.625
Re4	avC9#11	avC9#10	   54.2281	$POLY1
+ $X=483.11 $Y=-137.13
Re5	avC9#10	avC9#14	   73.8653	$POLY1
+ $X=481.3725 $Y=-137.115
Re6	avC10#13	avC10#9	  176.4075	$POLY1
+ $X=484.31 $Y=-110.71
Re7	avC7	avC7#2	  302.7703	$POLY1	$X=480.63 $Y=-127.575
Re8	INN#2	INN#1	  168.5112	$POLY1	$X=491.2 $Y=-104.475
Re9	avC7#3	avC7#4	  340.1362	$POLY1	$X=492.075 $Y=-84.265
Re10	INP#4	INP#2	  174.2861	$POLY1	$X=496.26 $Y=-104.3
Re11	avC8#8	avC8#9	  302.4339	$POLY1	$X=500.87 $Y=-164.1275
Re12	avC8#9	avC8#10	   81.2497	$POLY1	$X=496.2225 $Y=-163.49
Re13	avC8#4	avC8#9	    7.5000	$POLY1	$X=496.5 $Y=-163.475
Re14	avC7#5	avC7#6	  150.7752	$POLY1	$X=500.745 $Y=-145.35
Re15	avC7#6	avC7#7	  236.2969	$POLY1	$X=498.395 $Y=-144.835
Re16	avC7#6	avC7#8	   24.2772	$POLY1	$X=501.0525 $Y=-144.8
Re17	avC7#19	avC7#9	  163.2907	$POLY1	$X=505.25 $Y=-188.95
Re18	avC12#9	avC12#8	  212.2283	$POLY1
+ $X=506.305 $Y=-70.715
Re19	avC12#8	avC12#10	  182.1296	$POLY1
+ $X=502.2475 $Y=-71.49
Re20	avC23	avC23#2	  232.8221	$POLY1	$X=507.345 $Y=-89.395
Re21	avC23#2	avC23#3	  549.5524	$POLY1
+ $X=500.7275 $Y=-89.905
Re22	avC23#2	avC23#4	  137.6681	$POLY1
+ $X=502.475 $Y=-89.395
Re23	avC11#11	avC11#12	  220.8409	$POLY1
+ $X=507.38 $Y=-99.2
Re24	avC11#12	avC11#10	 1251.2347	$POLY1
+ $X=502.455 $Y=-103.2775
Re25	avC11#10	avC11#13	   36.8486	$POLY1
+ $X=475.7275 $Y=-90.755
Re26	avC11#12	avC11#14	  120.7141	$POLY1
+ $X=502.455 $Y=-99.195
Re27	avC6#9	avC6#10	  604.2357	$POLY1	$X=509.71 $Y=-209.115
Re28	avC6#10	avC6#5	   57.5704	$POLY1	$X=505.14 $Y=-207.405
Re29	avC9#17	avC9#15	  125.9698	$POLY1
+ $X=501.395 $Y=-112.96
Re30	avC9#15	avC9#18	  282.2500	$POLY1
+ $X=505.6625 $Y=-112.28
*
*       CAP/DIODE CARDS
*
*
CavD59_1	avC24#13	OUT#13	0 
+ w=2.5e-05 perimeter=6.408e-05 m=1 l=7.04e-06 area=1.76e-10 
CavD59_2	avC24#12	OUT#12	0 
+ w=2.5e-05 perimeter=6.408e-05 m=1 l=7.04e-06 area=1.76e-10 
CavD59_3	avC24#9	OUT#9	0 
+ w=2.5e-05 perimeter=6.408e-05 m=1 l=7.04e-06 area=1.76e-10 
CavD59_4	avC24#8	OUT#8	0 
+ w=2.5e-05 perimeter=6.408e-05 m=1 l=7.04e-06 area=1.76e-10 
CavD59_5	avC24#5	OUT#5	0 
+ w=2.5e-05 perimeter=6.408e-05 m=1 l=7.04e-06 area=1.76e-10 
CavD59_6	avC24#4	OUT#4	0 
+ w=2.5e-05 perimeter=6.408e-05 m=1 l=7.04e-06 area=1.76e-10 
CavD59_7	avC24	OUT#1	0 
+ w=2.5e-05 perimeter=6.408e-05 m=1 l=7.04e-06 area=1.76e-10 
DavD157_1	VSS#2	VDD#27	p_dnw#20auLvs#20PRIMLIB	4.63676e-09
+ 0.000768 	w=0 perimeter=0.000768 l=0
*
*
*       CAPACITOR CARDS
*
*
C8	VSS#50	VDD#27	5.55539E-16	$X=497.7855 $Y=-212.2315
C9	avC7#4	avC23#3	1.77742E-16	$X=483.4405 $Y=-88.368
C10	avC10#13	VDD#27	5.15062E-17	$X=484.4115 $Y=-120.7145
C11	VSS#24	avC8#10	1.16668E-16	$X=495.7995 $Y=-168.4235
C12	avC22#5	avC12#9	2.78808E-16
+ $X=506.4585 $Y=-61.6755
C13	avC8#10	VSS#2	3.87529E-17	$X=495.9695 $Y=-168.507
C14	avC24#19	VSS#2	5.54966E-16	$X=485.7395 $Y=-275.176
C15	avC15#7	avC10	4.87028E-16	$X=480.899 $Y=-71.7275
C16	avC21#5	VDD#27	1.02662E-16	$X=501.8985 $Y=-62.418
C17	VDD	VSS#2	1.0434E-15	$X=487.1845 $Y=-43.0645
C18	VDD#36	avC22#5	7.39208E-16	$X=506.1025 $Y=-61.0425
C19	VDD#45	avC10	4.78395E-16	$X=480.1255 $Y=-63.676
C20	avC9#13	VSS#2	4.13441E-17	$X=484.4195 $Y=-132.3565
C21	avC10#7	VSS#21	8.13783E-17	$X=486.3165 $Y=-115.7285
C22	avC7	VDD#27	1.03666E-16	$X=480.6265 $Y=-119.101
C23	avC7#4	avC16#5	4.84238E-17	$X=491.295 $Y=-86.783
C24	avC24#20	VSS#2	5.54492E-16	$X=485.7395 $Y=-267.1475
C25	avC6#5	VSS#2	1.17124E-16	$X=505.7265 $Y=-202.98
C26	avC11#12	VSS#2	1.99869E-15	$X=502.4545 $Y=-101.8305
C27	VSS#19	avC11#8	8.78845E-17	$X=475.419 $Y=-89.399
C28	avC7#4	INN#1	1.63829E-17	$X=490.243 $Y=-102.1515
C29	VDD#67	VSS#21	1.41875E-17	$X=485.9395 $Y=-114.285
C30	avC9#14	VSS#2	3.9278E-17	$X=481.1445 $Y=-132.391
C31	avC24#21	VSS#2	5.75203E-16	$X=485.7395 $Y=-258.9585
C32	avC7#9	VSS#2	2.52872E-16	$X=504.58 $Y=-189.02
C33	VDD#33	avC8#8	1.5221E-17	$X=500.0995 $Y=-182.6025
C34	avC10	VDD#27	4.80845E-17	$X=480.6255 $Y=-73.252
C35	avC7#4	INN	9.01537E-17	$X=489.3815 $Y=-104.213
C36	avC20#3	VSS#2	5.64036E-17	$X=507.8995 $Y=-94.3095
C37	VDD#53	avC10#3	5.28902E-16	$X=475.1745 $Y=-69.9135
C38	avC23#3	VSS#2	1.84085E-16	$X=480.6545 $Y=-87.5065
C39	OUT#15	VDD#1	7.34825E-15	$X=516.77 $Y=-130.3295
C40	avC11#8	VDD#27	3.12552E-17	$X=475.958 $Y=-88.7165
C41	INN	VDD#27	1.01159E-16	$X=489.386 $Y=-105.0405
C42	avC17	avC9#15	1.64006E-16	$X=501.7 $Y=-113.5015
C43	avC10#3	VDD#27	6.71312E-17	$X=475.461 $Y=-72.2005
C44	avC18#5	VDD#27	1.56383E-16	$X=498.4135 $Y=-104.8765
C45	avC11#13	VSS#2	7.8084E-17	$X=475.4545 $Y=-88.9625
C46	avC9#5	VSS#2	4.90961E-17	$X=481.6645 $Y=-128.5225
C47	avC9#15	VSS#2	1.08184E-15	$X=501.572 $Y=-112.3535
C48	avC12#4	avC23#4	2.48958E-16
+ $X=502.6635 $Y=-79.8975
C49	avC12#4	avC23#2	1.88135E-16	$X=502.7105 $Y=-84.844
C50	avC7#6	VDD#27	7.31396E-16	$X=498.372 $Y=-144.7405
C51	avC21	avC23#4	2.51174E-16	$X=502.3495 $Y=-79.7105
C52	INP	VDD#27	1.18848E-16	$X=493.841 $Y=-105.149
C53	avC7#8	VSS#2	8.25195E-16	$X=501.3945 $Y=-143.265
C54	avC9#16	avC17	1.5685E-16	$X=500.171 $Y=-113.866
C55	avC17#5	VSS#2	4.97241E-16	$X=491.7045 $Y=-97.642
C56	VSS#33	avC9#18	2.6333E-16	$X=508.677 $Y=-123.158
C57	avC20#6	VDD#27	2.91021E-16	$X=509.062 $Y=-89.86
C58	avC10#11	avC7#2	3.55462E-17	$X=485.156 $Y=-131.6925
C59	avC8#4	VSS#2	5.73569E-16	$X=496.338 $Y=-164.241
C60	VSS#22	VDD#27	2.13591E-16	$X=491.146 $Y=-114.366
C61	avC21#5	avC12#10	2.63458E-16
+ $X=501.6285 $Y=-61.1875
C62	avC17#5	INP	3.12483E-17	$X=493.7345 $Y=-104.7725
C63	VDD#55	avC11#10	1.24631E-16	$X=478.032 $Y=-101.4275
C64	avC8#5	VDD#27	7.88673E-17	$X=496.414 $Y=-153.5995
C65	avC21	avC23#2	7.98164E-17	$X=502.262 $Y=-84.5505
C66	avC9#16	VSS#22	2.01864E-16	$X=493.1005 $Y=-113.875
C67	avC14#7	VSS#26	7.82998E-17	$X=495.978 $Y=-174.4075
C68	INN	avC11#12	3.10068E-17	$X=490.3085 $Y=-104.821
C69	VSS#21	VDD#27	8.49476E-16	$X=487.579 $Y=-112.053
C70	VDD#57	avC9#3	7.2856E-16	$X=480.857 $Y=-119.308
C71	avC16	VDD#27	2.2373E-16	$X=495.684 $Y=-95.4395
C72	VDD#33	avC6#5	7.48923E-16	$X=504.343 $Y=-201.01
C73	avC7#10	avC8#4	1.31689E-16	$X=497.5515 $Y=-168.3995
C74	VDD#55	VSS#18	4.70103E-17	$X=479.63 $Y=-102.8355
C75	VDD#36	avC12#8	4.40688E-17	$X=504.3325 $Y=-66.2405
C76	VSS#18	avC11#10	4.30299E-17	$X=477.786 $Y=-96.587
C77	VDD#68	avC7#5	2.45677E-16	$X=500.7165 $Y=-154.7015
C78	VDD#33	avC7#9	8.61299E-17	$X=503.8135 $Y=-189.355
C79	avC20#3	avC11#11	1.36716E-16	$X=507.706 $Y=-94.791
C80	avC22	avC20#7	7.2859E-16	$X=507.347 $Y=-80.9
C81	INP	avC11#12	3.53028E-17	$X=494.5435 $Y=-104.8875
C82	avC14#3	avC8#4	8.53362E-17	$X=497.2445 $Y=-167.1785
C83	avC9#16	VSS#38	1.30856E-16	$X=500.001 $Y=-117.289
C84	avC7#2	VSS#2	1.16735E-15	$X=486.51 $Y=-128.2375
C85	avC16#9	VDD#27	6.99617E-17	$X=492.489 $Y=-68.48
C86	avC14#7	VSS#24	5.8462E-17	$X=495.898 $Y=-170.502
C87	avC11	avC10#2	1.08789E-16	$X=479.4285 $Y=-60.456
C88	VDD#67	avC10#10	1.3421E-16	$X=484.213 $Y=-112.3015
C89	avC16	INP#4	2.59522E-16	$X=496.08 $Y=-94.804
C90	VSS#40	OUT#38	3.0395E-15	$X=509.717 $Y=-176.8395
C91	VSS#27	avC6#10	6.16745E-17	$X=504.917 $Y=-209.309
C92	avC17#5	VDD#27	2.52296E-16	$X=491.657 $Y=-97.5105
C93	VSS#24	avC8#4	1.97167E-17	$X=495.876 $Y=-166.3595
C94	avC18#5	avC11#12	1.05667E-16
+ $X=499.5685 $Y=-104.042
C95	VDD#55	VSS#21	5.84687E-17	$X=484.5625 $Y=-110.641
C96	avC8	VSS#2	3.52745E-17	$X=496.4895 $Y=-167.6495
C97	avC7#17	VDD#27	1.66133E-16	$X=501.358 $Y=-154.155
C98	avC14#7	avC8	2.37346E-17	$X=496.4135 $Y=-169.222
C99	avC8#5	avC7#7	2.99229E-16	$X=496.1415 $Y=-154.1655
C100	VSS#38	avC17	5.85966E-16	$X=501.328 $Y=-120.4005
C101	avC9#10	VSS#2	3.24887E-16	$X=481.5555 $Y=-137.0265
C102	avC10#11	VSS#2	1.05417E-16	$X=484.9395 $Y=-132.2455
C103	VDD#39	avC12#8	5.21913E-17	$X=502.0255 $Y=-66.143
C104	avC15#7	avC23#3	6.26115E-17	$X=480.829 $Y=-81.4225
C105	VDD#40	avC16#9	1.47133E-15	$X=492.07 $Y=-67.9975
C106	avC11#10	VSS#2	1.61531E-15	$X=475.9795 $Y=-94.4545
C107	avC16#9	avC7#3	5.12988E-16	$X=492.2315 $Y=-66.349
C108	VDD#40	avC7#3	5.21621E-16	$X=491.8995 $Y=-65.9955
C109	avC9#7	VSS#2	6.62182E-17	$X=481.6645 $Y=-132.87
C110	VSS#38	avC9#17	2.2637E-16	$X=501.211 $Y=-121.6895
C111	avC18#3	VDD#27	2.75932E-17	$X=496.7395 $Y=-96.327
C112	avC18#6	VSS#2	2.59811E-16	$X=510.379 $Y=-118.641
C113	avC11#11	avC23#2	1.3803E-17
+ $X=506.0775 $Y=-93.5215
C114	VDD#67	avC10#7	7.5628E-16	$X=484.454 $Y=-118.3915
C115	avC10#10	VSS#21	2.58667E-16	$X=486.8915 $Y=-109.3795
C116	avC23#3	VDD#27	1.41459E-15	$X=480.652 $Y=-87.4715
C117	avC9#6	avC10#7	1.25788E-16	$X=484.4015 $Y=-123.0235
C118	avC10#10	VDD#27	8.35544E-16	$X=484.906 $Y=-101.5485
C119	avC10#4	avC15#7	2.71952E-17	$X=481.335 $Y=-63.0975
C120	OUT#38	VSS#2	1.48748E-16	$X=510.2085 $Y=-177.813
C121	avC17#5	INN#2	2.52616E-16	$X=491.341 $Y=-95.3525
C122	VDD#59	avC7#6	9.79135E-17	$X=497.6885 $Y=-144.119
C123	avC9#6	VDD#67	2.18296E-17	$X=483.7895 $Y=-121.8255
C124	avC23#3	avC10	3.07615E-17	$X=480.646 $Y=-82.723
C125	VDD#39	avC21#5	7.33776E-16	$X=501.2775 $Y=-60.8615
C126	avC20#10	VSS#2	1.5235E-14	$X=501.9285 $Y=-154.04
C127	avC22	avC12#8	7.05707E-18	$X=504.2005 $Y=-74.476
C128	avC20#6	VSS#2	1.84437E-17	$X=509.0735 $Y=-89.8705
C129	VDD#45	avC10#4	3.54144E-17	$X=480.4805 $Y=-53.5825
C130	VDD#53	avC11	1.4659E-15	$X=475.2495 $Y=-68.548
C131	VSS#21	avC11#12	1.0137E-16	$X=492.889 $Y=-108.448
C132	VSS#19	avC11#10	2.10264E-16	$X=475.1115 $Y=-90.7595
C133	avC22#5	avC12#8	9.45147E-17	$X=504.192 $Y=-68.878
C134	avC14	VDD#27	2.41002E-16	$X=476.0875 $Y=-136.181
C135	VDD#68	avC7#17	7.56156E-16	$X=501.085 $Y=-153.8995
C136	avC18#3	INP#2	7.71314E-17	$X=496.0435 $Y=-101.962
C137	VDD#62	avC7#6	5.61006E-17	$X=496.998 $Y=-148.7575
C138	avC18#11	VSS#2	3.95801E-16	$X=507.76 $Y=-96.824
C139	avC16#5	avC23#3	5.09473E-17
+ $X=488.8325 $Y=-86.5545
C140	avC11#14	avC23#2	1.62901E-17	$X=502.4625 $Y=-92.97
C141	avC10#11	avC9#13	1.11856E-16
+ $X=484.6795 $Y=-132.3005
C142	avC10#4	VDD#27	2.23221E-15	$X=481.5865 $Y=-53.0415
C143	avC6#6	VSS#2	4.08676E-17	$X=505.7095 $Y=-208.404
C144	avC11	VDD#27	1.30898E-16	$X=475.974 $Y=-70.0465
C145	avC17#5	avC16#5	1.53331E-17	$X=491.633 $Y=-87.516
C146	avC9#5	VDD#27	1.52225E-17	$X=481.664 $Y=-128.511
C147	avC18#11	avC23#2	7.07851E-18	$X=505.7225 $Y=-93.328
C148	VDD#57	avC7	3.24262E-16	$X=480.443 $Y=-119.0265
C149	VSS#24	avC8	2.94503E-16	$X=496.1875 $Y=-167.828
C150	VDD#33	VSS#2	1.9825E-15	$X=497.957 $Y=-191.915
C151	avC24#15	VSS#2	2.34359E-14	$X=963.445 $Y=-318.4325
C152	avC21	avC12#8	7.25693E-17	$X=502.708 $Y=-74.472
C153	avC12	VSS#2	7.40232E-17	$X=502.9645 $Y=-94.328
C154	avC16	avC23#2	4.98649E-17	$X=499.474 $Y=-91.224
C155	avC9#6	VDD#27	6.29708E-16	$X=483.648 $Y=-127.587
C156	avC16#8	VDD#27	1.19746E-16	$X=490.656 $Y=-95.1605
C157	avC21#5	avC12#8	1.35679E-16	$X=502.697 $Y=-68.817
C158	avC18#11	avC11#12	1.02168E-17	$X=505.5935 $Y=-98.867
C159	avC18#5	INP#2	3.91238E-17	$X=496.8385 $Y=-104.938
C160	avC20#10	avC9#18	1.99431E-17
+ $X=509.4155 $Y=-121.8265
C161	VDD#45	avC15#7	1.47254E-15	$X=480.415 $Y=-62.4875
C162	avC20#6	avC23#2	5.35037E-17
+ $X=508.1845 $Y=-89.5855
C163	avC14#2	VSS#2	1.97809E-14	$X=316.329 $Y=-36.1995
C164	avC10#7	VDD#27	8.71534E-17	$X=484.931 $Y=-119.56
C165	avC17	VSS#2	7.88191E-16	$X=502.0645 $Y=-116.7625
C166	avC18#10	VSS#2	1.1571E-15	$X=508.7775 $Y=-104.807
C167	avC6#5	avC7#19	2.82168E-16	$X=505.4695 $Y=-201.1575
C168	avC20	VSS#2	3.0937E-16	$X=208.8965 $Y=-323.115
C169	VSS#15	avC23#3	3.19553E-17	$X=480.172 $Y=-89.0575
C170	avC7#10	VSS#2	2.40773E-16	$X=501.9945 $Y=-183.619
C171	avC20#10	OUT#35	5.33317E-16	$X=511.766 $Y=-214.4775
C172	avC11	avC10#3	5.3706E-16	$X=475.6195 $Y=-71.5035
C173	avC20#10	avC18#6	3.20801E-16
+ $X=509.664 $Y=-121.6345
C174	INN#1	avC16#8	8.83936E-17	$X=490.5455 $Y=-101.665
C175	avC11#12	INP#2	7.75241E-17	$X=497.1945 $Y=-104.249
C176	VDD#59	avC8#5	1.5886E-17	$X=497.1005 $Y=-145.638
C177	avC23#4	avC12#8	1.04301E-17	$X=502.77 $Y=-75.4365
C178	avC16	avC18#3	7.28396E-16	$X=496.47 $Y=-96.1325
C179	avC6#5	VDD#27	2.08771E-16	$X=505.6865 $Y=-202.769
C180	avC9#3	VDD#27	9.80193E-17	$X=481.1665 $Y=-119.483
C181	avC20#10	OUT#38	1.09183E-15	$X=507.7745 $Y=-170.8195
C182	avC21	avC12#4	7.72249E-16	$X=502.5 $Y=-80.949
C183	VSS#11	avC14	1.50957E-16	$X=480.588 $Y=-145.6395
C184	avC7#2	VSS#22	1.42289E-17	$X=490.5425 $Y=-116.2145
C185	VSS#40	VDD#27	2.70351E-16	$X=508.8195 $Y=-174.3985
C186	VSS#21	avC7#4	7.02199E-17	$X=488.1005 $Y=-105.469
C187	avC14#3	VSS#2	9.95699E-17	$X=500.3645 $Y=-177.286
C188	avC9#16	VSS#2	9.60299E-16	$X=499.1245 $Y=-112.2665
C189	avC7#4	avC16#8	3.20186E-16	$X=490.2305 $Y=-93.6135
C190	VSS#19	avC11#13	3.46184E-17	$X=475.2685 $Y=-89.3355
C191	VDD#68	avC7#6	1.67555E-16	$X=498.9075 $Y=-146.961
C192	avC7#9	VDD#27	4.07682E-16	$X=504.557 $Y=-188.905
C193	avC20#10	VSS#40	4.2538E-16	$X=506.983 $Y=-169.177
C194	VSS#21	avC7#2	4.64263E-16	$X=487.3185 $Y=-116.16
C195	avC15#7	VDD#27	5.37306E-17	$X=481.144 $Y=-70.2735
C196	avC9#6	VDD#57	3.61315E-17	$X=482.308 $Y=-124.2715
C197	avC20#10	VSS#35	5.86604E-17	$X=503.4955 $Y=-133.236
C198	avC14#7	VSS#2	4.94827E-16	$X=496.2615 $Y=-172.3755
C199	avC18#6	avC9#18	3.08079E-16
+ $X=510.0775 $Y=-119.3615
C200	VSS#49	avC6#10	2.78736E-17	$X=508.355 $Y=-211.735
C201	avC10#9	VSS#21	4.24718E-17	$X=485.6925 $Y=-111.7295
C202	avC11#12	INN#1	5.9641E-17	$X=493.315 $Y=-104.2995
C203	VSS#33	avC18#6	5.89553E-16	$X=508.644 $Y=-123.312
C204	VSS#30	avC6#10	1.2662E-17	$X=504.704 $Y=-211.4045
C205	VDD#68	avC7#8	1.17478E-16	$X=501.1 $Y=-146.043
C206	avC8#4	avC7#5	1.23692E-17	$X=498.5955 $Y=-159.857
C207	avC20#10	avC18#11	3.2034E-17
+ $X=507.4565 $Y=-99.7995
C208	avC12#8	VDD#27	1.02911E-15	$X=502.991 $Y=-71.6845
C209	avC18#5	VSS#2	2.56747E-16	$X=498.4315 $Y=-104.915
C210	avC10#7	avC7#2	3.76398E-17	$X=485.357 $Y=-121.9245
C211	VDD#36	avC12#9	2.8742E-16	$X=506.0155 $Y=-60.7125
C212	VSS#18	VDD#27	2.8036E-16	$X=479.249 $Y=-98.2625
C213	avC23#2	VDD#27	2.39362E-15	$X=502.415 $Y=-87.6975
C214	INP#3	avC11#12	1.33259E-17	$X=495.2595 $Y=-104.9765
C215	avC23#2	avC7#4	9.74148E-18	$X=496.3605 $Y=-88.8775
C216	VDD#62	avC8#5	7.39208E-16	$X=495.748 $Y=-153.357
C217	OUT#38	avC6#9	9.98876E-16	$X=509.8675 $Y=-173.0475
C218	avC12	avC11#12	6.3033E-18	$X=502.7815 $Y=-97.012
C219	VDD#68	avC8#4	5.7235E-18	$X=497.5505 $Y=-160.853
C220	avC8#4	avC7#7	1.2444E-17	$X=496.165 $Y=-159.7125
C221	VDD#33	avC7#19	2.54109E-16	$X=503.9325 $Y=-198.039
C222	avC11#12	VDD#27	1.41918E-15	$X=502.4005 $Y=-101.7405
C223	avC9#3	avC7#2	2.79284E-17	$X=482.552 $Y=-121.805
C224	VSS#40	avC6#9	1.00285E-15	$X=509.5465 $Y=-172.3465
C225	avC7#4	avC11#12	6.17091E-17	$X=496.6615 $Y=-96.706
C226	VSS#21	avC11#10	7.15724E-17	$X=482.8675 $Y=-104.932
C227	VDD#67	avC10#9	1.61049E-16	$X=484.502 $Y=-113.099
C228	avC7#8	VDD#27	4.01456E-16	$X=501.365 $Y=-143.1585
C229	avC17#5	avC11#12	8.01833E-17
+ $X=498.3765 $Y=-100.2395
C230	OUT#35	VSS#2	1.93047E-15	$X=512.694 $Y=-220.18
C231	INP#3	VDD#27	7.02442E-17	$X=494.8425 $Y=-105.152
C232	avC14#7	avC8#10	6.8109E-18
+ $X=496.079 $Y=-169.9615
C233	avC8#5	avC7#6	3.30191E-17	$X=497.859 $Y=-147.345
C234	INP#3	avC18#5	2.51861E-17	$X=495.3025 $Y=-105.1265
C235	avC8#4	VDD#27	4.27699E-16	$X=496.313 $Y=-164.097
C236	OUT#36	VSS#2	2.03601E-15	$X=512.694 $Y=-242.761
C237	avC12	VDD#27	3.82827E-17	$X=502.9335 $Y=-94.287
C238	avC7#4	INN#2	2.92784E-17	$X=490.557 $Y=-93.03
C239	avC18#11	avC11#11	2.33339E-16	$X=507.5185 $Y=-96.049
C240	INP#2	VDD#27	3.2246E-16	$X=495.648 $Y=-104.9275
C241	OUT#38	avC6#10	2.99479E-16	$X=507.89 $Y=-204.598
C242	VDD#39	avC12#10	2.72091E-16	$X=501.197 $Y=-60.3385
C243	avC7#2	avC10#13	1.1172E-17	$X=484.9955 $Y=-122.8485
C244	avC23	VDD#27	6.71E-17	$X=507.2815 $Y=-80.367
C245	VSS#40	avC6#10	3.36979E-16	$X=507.721 $Y=-204.511
C246	avC16	INP#2	7.71374E-17	$X=495.673 $Y=-103.302
C247	avC20#10	VDD#27	3.12084E-15	$X=501.2815 $Y=-151.4655
C248	INN#1	VDD#27	2.87728E-16	$X=490.4705 $Y=-105.0365
C249	OUT#15	VDD#27	2.47922E-16	$X=516.121 $Y=-129.3465
C250	avC16#5	INN#2	9.83154E-18	$X=491.52 $Y=-88.2515
C251	VDD#1	VSS#2	4.11463E-16	$X=516.296 $Y=-129.335
C252	VSS#26	VDD#33	1.99262E-16	$X=496.0065 $Y=-181.3
C253	avC11#8	VSS#2	1.13152E-16	$X=475.957 $Y=-88.7275
C254	avC12#9	VDD#27	6.86385E-17	$X=506.24 $Y=-61.188
C255	OUT#35	VDD#27	1.82475E-16	$X=512.602 $Y=-219.7505
C256	avC18#3	avC23#2	1.58923E-17	$X=498.655 $Y=-93.515
C257	avC7#4	VDD#27	2.01127E-15	$X=489.2455 $Y=-90.096
C258	VDD#21	VSS#2	1.36693E-15	$X=505.764 $Y=-48.267
C259	avC20#10	VSS#33	6.38403E-17	$X=507.503 $Y=-126.9495
C260	avC6#5	avC7#9	5.55833E-17	$X=505.012 $Y=-194.28
C261	avC20#7	avC23#2	2.3771E-17	$X=504.959 $Y=-84.6855
C262	avC9#6	avC10#11	5.85105E-17	$X=484.629 $Y=-131.149
C263	avC15#7	avC10#2	1.49898E-16
+ $X=480.8765 $Y=-63.0385
C264	avC7#10	VDD#27	7.48439E-17	$X=501.875 $Y=-182.993
C265	avC16#5	VDD#27	3.05243E-16	$X=491.6185 $Y=-86.2195
C266	avC18#3	INP#4	2.48288E-16	$X=496.5205 $Y=-95.488
C267	avC7#19	VDD#27	4.72587E-17	$X=505.175 $Y=-199.149
C268	VDD#22	VSS#2	9.1453E-16	$X=500.9395 $Y=-48.21
C269	avC17#5	INP#2	3.39859E-18	$X=495.0605 $Y=-103.8475
C270	avC7#2	VDD#27	2.56701E-15	$X=486.481 $Y=-127.988
C271	avC10#10	avC11#12	2.03129E-17
+ $X=495.6035 $Y=-101.7725
C272	avC16#5	avC23#2	1.42228E-16	$X=493.3485 $Y=-86.473
C273	VDD#23	VSS#2	7.70018E-16	$X=493.978 $Y=-46.3675
C274	avC23#4	VDD#27	5.47439E-17	$X=502.476 $Y=-79.256
C275	avC12	avC11#14	1.30392E-16	$X=502.6405 $Y=-94.403
C276	avC9#16	avC17#5	8.7022E-17	$X=496.741 $Y=-107.567
C277	avC18#11	avC20#3	3.19923E-16	$X=507.864 $Y=-94.9485
C278	avC9#5	avC7#2	6.58633E-17	$X=481.8705 $Y=-128.51
C279	VDD#45	avC10#2	2.56315E-16	$X=480.206 $Y=-55.755
C280	avC10#9	VDD#27	2.71963E-16	$X=484.7415 $Y=-111.506
C281	INP#4	avC23#2	1.09643E-17	$X=498.5215 $Y=-92.009
C282	avC14#7	VDD#32	2.00838E-16	$X=495.202 $Y=-170.359
C283	avC22	VDD#27	1.47504E-16	$X=506.737 $Y=-80.622
C284	VDD#62	avC7#7	2.90587E-16	$X=495.665 $Y=-153.6535
C285	avC22	avC23#2	3.42427E-17	$X=504.4335 $Y=-84.5675
C286	VSS#11	VDD#32	2.15578E-16	$X=481.299 $Y=-146.0765
C287	INN#1	avC17#5	1.44851E-16	$X=490.674 $Y=-103.882
C288	VDD#24	VSS#2	6.46436E-16	$X=486.4135 $Y=-46.367
C289	avC10#10	avC23#3	3.95641E-17	$X=481.8545 $Y=-91.489
C290	OUT#46	VSS#2	5.65575E-16	$X=512.694 $Y=-259.04
C291	avC12#10	VDD#27	6.86385E-17	$X=501.425 $Y=-60.583
C292	avC10#10	VSS#2	1.16159E-15	$X=484.9275 $Y=-101.688
C293	avC16#9	avC7#4	1.55752E-16	$X=490.359 $Y=-83.046
C294	avC22#5	VDD#27	1.03795E-16	$X=506.7035 $Y=-62.6145
C295	VDD#25	VSS#2	9.03659E-16	$X=479.1295 $Y=-48.2755
C296	VDD#33	avC7#10	1.2363E-16	$X=500.2655 $Y=-187.171
C297	avC9#18	VSS#2	4.25923E-16	$X=509.8765 $Y=-119.844
C298	avC7#9	avC8#8	6.92985E-18	$X=503.589 $Y=-186.4115
C299	VDD#53	avC10#2	1.54087E-16	$X=478.155 $Y=-61.7705
C300	OUT#47	VSS#2	5.66054E-16	$X=512.694 $Y=-267.0615
C301	avC9#6	avC7#2	3.35508E-16	$X=484.6095 $Y=-127.8855
C302	avC7#5	VDD#27	5.1089E-17	$X=500.838 $Y=-155.3105
C303	avC17	avC9#17	1.98892E-16	$X=501.58 $Y=-120.0065
C304	VDD#26	VSS#2	8.15242E-16	$X=473.482 $Y=-46.3675
C305	VDD#31	avC11#10	1.04555E-17	$X=475.476 $Y=-95.907
C306	avC6#9	VSS#2	6.71361E-17	$X=509.704 $Y=-170.7725
C307	VSS#38	avC9#15	5.53008E-17	$X=501.318 $Y=-116.2155
C308	OUT#48	VSS#2	5.6797E-16	$X=512.694 $Y=-275.1015
C309	avC16#8	avC17#5	7.33776E-16
+ $X=490.9455 $Y=-95.8485
C310	avC14	VSS#2	2.01602E-14	$X=476.003 $Y=-138.3355
C311	VDD#40	avC7#4	1.24759E-16	$X=490.0155 $Y=-82.8195
C312	INP#4	VDD#27	5.72263E-17	$X=496.214 $Y=-94.4175
C313	VSS#11	avC9#10	1.66577E-16	$X=481.529 $Y=-137.976
C314	avC11#11	VSS#2	2.49248E-16	$X=507.3795 $Y=-95.6045
C315	VDD#33	avC14#3	1.6149E-17	$X=499.37 $Y=-183.3285
C316	avC10#2	VDD#27	8.29914E-16	$X=480.6485 $Y=-57.08
C317	OUT#49	VSS#2	5.68289E-16	$X=512.694 $Y=-283.159
C318	avC18#10	avC20#10	2.44404E-16	$X=508.43 $Y=-107.304
C319	avC16#8	INN#2	2.60918E-16	$X=490.925 $Y=-94.847
C320	VSS#49	avC20#10	5.44252E-17	$X=508.443 $Y=-211.2395
C321	avC6#10	VSS#2	7.61382E-16	$X=507.4615 $Y=-209.545
C322	avC7#7	VDD#27	5.75483E-17	$X=495.9305 $Y=-154.175
C323	avC7#10	avC8#8	4.34493E-16	$X=501.234 $Y=-180.671
C324	OUT#50	VSS#2	5.90311E-16	$X=512.694 $Y=-291.415
C325	avC11#10	VDD#27	1.176E-15	$X=475.9855 $Y=-94.395
C326	VDD#31	VSS#2	5.61203E-15	$X=471.7085 $Y=-106.822
C327	avC11#14	VSS#2	5.42729E-17	$X=502.4595 $Y=-94.4465
C328	avC14#3	avC8#8	4.34776E-16	$X=500.6985 $Y=-178.59
C329	VDD#67	avC10#13	2.49106E-16	$X=484.17 $Y=-118.9635
C330	avC24#16	VSS#2	2.35967E-14	$X=485.974 $Y=-308.5245
C331	avC7#3	VDD#27	6.86385E-17	$X=492.026 $Y=-65.274
C332	VDD#27	VSS#2	1.67469E-16	$X=479.4085 $Y=-64.8905
C333	avC20#7	avC23	2.89548E-16	$X=507.5175 $Y=-80.657
C334	VDD#32	VSS#2	3.29423E-15	$X=481.3395 $Y=-143.971
C335	avC12#4	VDD#27	9.95002E-17	$X=502.927 $Y=-81.2
C336	avC9#17	VSS#2	5.57037E-17	$X=501.4045 $Y=-121.187
C337	avC22	avC23	2.98228E-16	$X=507.1505 $Y=-80.494
C338	VSS#27	avC6#6	4.63115E-17	$X=505.31 $Y=-208.748
C339	avC24#17	VSS#2	5.50646E-16	$X=485.7395 $Y=-291.2625
C340	avC9#6	VSS#2	4.24449E-16	$X=483.657 $Y=-127.7115
C341	INN#2	VDD#27	6.6551E-17	$X=491.1815 $Y=-94.4145
C342	avC9#3	avC7	3.25688E-16	$X=480.944 $Y=-119.411
C343	avC8#8	VSS#2	5.34697E-17	$X=500.8695 $Y=-179.2565
C344	avC24#18	VSS#2	5.57654E-16	$X=485.7395 $Y=-283.23
C345	avC21	VDD#27	1.0175E-16	$X=501.9335 $Y=-80.5945
C346	avC20#2	VSS#2	1.91357E-14	$X=205.794 $Y=-320.652
C347	avC14#3	avC7#10	1.19992E-15	$X=501.154 $Y=-180.354
C348	avC15#2	avC23#3	6.96862E-17	$X=481.087 $Y=-87.7725
C349	OUT#13	VSS#2	3.91933E-15	$X=505.666 $Y=-296.089
C350	avC9#7	VSS#9	1.04962E-16	$X=482.714 $Y=-133.3795
C351	avC19	avC11#14	1.2176E-16	$X=502.2675 $Y=-94.533
C352	avC24#9	VSS#2	2.73841E-15	$X=492.576 $Y=-280.161
C353	avC19	avC12	2.94503E-16	$X=502.4365 $Y=-94.509
C354	VSS#15	avC15#2	5.62748E-17	$X=480.6385 $Y=-88.5315
C355	OUT#4	VSS#2	2.89145E-15	$X=505.666 $Y=-255.904
C356	avC9#11	avC7#2	2.85927E-16	$X=487.6205 $Y=-132.5625
C357	OUT#15	avC13	3.16099E-15	$X=516.0395 $Y=-110.553
C358	avC19	avC11#12	6.3033E-18	$X=502.123 $Y=-97.0905
C359	OUT#9	VSS#2	2.89145E-15	$X=505.666 $Y=-280.015
C360	avC9#11	VSS#2	2.05598E-15	$X=488.7055 $Y=-136.785
C361	avC24#5	VSS#2	2.73841E-15	$X=492.576 $Y=-264.087
C362	avC10#11	avC9#11	4.3545E-17
+ $X=485.4695 $Y=-132.8845
C363	VDD#1	avC13	3.24209E-15	$X=515.511 $Y=-109.1575
C364	avC15#2	VDD#27	3.46646E-17	$X=481.149 $Y=-87.806
C365	avC24#12	VSS#2	2.73659E-15	$X=492.576 $Y=-288.198
C366	avC20#10	avC13	5.10391E-17	$X=507.4415 $Y=-123.642
C367	avC9#10	VSS#9	2.19274E-17	$X=482.558 $Y=-135.6815
C368	VSS#9	avC10#11	2.94503E-16	$X=484.4065 $Y=-133.079
C369	avC9#11	avC7#8	2.89503E-16	$X=498.073 $Y=-141.568
C370	VSS#13	avC9#7	3.12944E-16	$X=481.1 $Y=-133.146
C371	VSS#9	avC9#14	1.28582E-17	$X=482.494 $Y=-133.1585
C372	OUT#5	VSS#2	2.89145E-15	$X=505.666 $Y=-263.941
C373	avC24	VSS#2	4.13756E-15	$X=492.5225 $Y=-248.5315
C374	avC9#6	VSS#9	2.02853E-17	$X=483.8095 $Y=-132.3995
C375	avC9#11	avC20#10	2.5821E-16
+ $X=490.2085 $Y=-138.7445
C376	VSS#9	avC9#11	1.87233E-16	$X=484.5575 $Y=-134.3455
C377	OUT#12	VSS#2	2.89087E-15	$X=505.666 $Y=-288.0525
C378	avC13	VDD#27	9.78777E-16	$X=513.2625 $Y=-83.7345
C379	avC9#11	VSS#35	3.19118E-16	$X=499.1115 $Y=-133.5005
C380	avC24#8	VSS#2	2.73841E-15	$X=492.576 $Y=-272.124
C381	VSS#13	avC9#14	1.04615E-16	$X=480.841 $Y=-132.9365
C382	VSS#9	avC9#13	1.03223E-16	$X=484.1425 $Y=-133.136
C383	avC24#13	VSS#2	3.07969E-15	$X=492.576 $Y=-296.2355
C384	VSS#13	avC9#10	5.14008E-17	$X=481.09 $Y=-135.2885
C385	OUT#1	VSS#2	3.22666E-15	$X=505.666 $Y=-247.8665
C386	VSS#13	avC9#6	2.09305E-17	$X=481.2455 $Y=-132.1745
C387	avC15#2	VSS#2	6.24165E-17	$X=481.1495 $Y=-87.811
C388	OUT#8	VSS#2	2.89145E-15	$X=505.666 $Y=-271.978
C389	avC24#4	VSS#2	2.73841E-15	$X=492.576 $Y=-256.0495
C390	avC9#11	avC10#12	6.65122E-18
+ $X=485.5045 $Y=-133.6315
C391	INP	VSS	5.62088E-18	$X=491.664 $Y=-120.646
C392	INP#4	VSS	1.13394E-18	$X=484.6695 $Y=-174.3125
C393	INN#2	VSS	1.28971E-18	$X=481.459 $Y=-174.5705
C394	avC10#13	VSS	6.11599E-18	$X=477.254 $Y=-190.5355
C395	avC7	VSS	8.55987E-19	$X=473.9165 $Y=-200.972
C396	avC6#9	VSS	1.85831E-18	$X=478.457 $Y=-268.371
C397	avC8#8	VSS	1.16304E-18	$X=482.902 $Y=-244.9255
C398	avC9#13	VSS	7.37116E-18	$X=480.587 $Y=-167.3865
C399	avC9#14	VSS	3.91728E-18	$X=477.9215 $Y=-167.782
C400	avC23#3	VSS	7.42914E-18	$X=474.994 $Y=-167.736
C401	avC20#10	VSS	1.0356E-16	$X=467.849 $Y=-298.247
C402	avC9#16	VSS	1.42771E-19	$X=484.876 $Y=-194.8965
C403	avC14#7	VSS	1.16304E-18	$X=486.909 $Y=-213.633
C404	avC10#10	VSS	4.86709E-18	$X=473.125 $Y=-224.9075
C405	avC9#6	VSS	1.21229E-17	$X=475.5325 $Y=-207.0055
C406	avC20#2	VSS	1.09565E-16	$X=441.7805 $Y=-311.5795
C407	avC9#15	VSS	2.87939E-18	$X=490.1115 $Y=-174.3505
C408	INN#1	VSS	5.62088E-18	$X=484.792 $Y=-150.7995
C409	avC7#4	VSS	4.86709E-18	$X=476.111 $Y=-209.3135
C410	avC7#2	VSS	2.47756E-17	$X=473.4645 $Y=-238.4225
C411	avC11#10	VSS	9.1906E-18	$X=471.253 $Y=-186.7705
C412	avC16#8	VSS	2.05287E-18	$X=481.6015 $Y=-171.069
C413	VDD#67	VSS	1.7114E-17	$X=476.55 $Y=-191.94
C414	VDD#27	VSS	4.47863E-18	$X=464.945 $Y=-310.0665
C415	avC10#11	VSS	4.47863E-18	$X=481.0125 $Y=-167.228
C416	avC18	VSS	1.13394E-18	$X=483.7245 $Y=-183.8205
C417	avC16	VSS	2.6101E-18	$X=478.531 $Y=-215.622
C418	avC17#5	VSS	3.56217E-18	$X=475.5925 $Y=-225.7435
C419	VDD#40	VSS	3.51935E-18	$X=472.6295 $Y=-240.232
C420	avC16#6	VSS	9.42083E-19	$X=480.1645 $Y=-183.7995
C421	avC10#5	VSS	2.90403E-18	$X=476.735 $Y=-197.3875
C422	VDD#65	VSS	4.4577E-18	$X=476.1555 $Y=-197.3875
C423	avC19	VSS	1.02027E-17	$X=490.1135 $Y=-163.7195
C424	avC9#8	VSS	1.97973E-18	$X=478.0115 $Y=-171.5215
C425	avC23#2	VSS	7.11039E-18	$X=483.5595 $Y=-200.007
C426	avC11#12	VSS	4.66297E-18	$X=484.446 $Y=-202.008
*
*
.ENDS pmos_cascode
*
