*
*
*
*                       LINUX           Tue Dec 10 04:21:26 2019
*
*
*
*  PROGRAM  advgen
*
*  Name           : advgen - Quantus QRC - (64-bit)
*  Version        : 17.1.2-s041
*  Build Date     : Wed Aug 23 16:57:50 PDT 2017
*
*  HSPICE LIBRARY
*
*!LENGTH_UNITS METERS
*
*
*

*
.SUBCKT const_gm VSS VBAT VBIAS
*
*
*  caps2d version: 10
*
*
*       TRANSISTOR CARDS
*
*
MavD43_1	VSS#3	VBIAS#11	VBIAS#5	VSS#6
+ ne#20ivpcell#20PRIMLIB	L=5e-07	W=2e-06
+ AD=9.6e-13	AS=9.6e-13	PD=4.96e-06	PS=4.96e-06
+ NRD=8.650E-02	NRS=8.650E-02	wtot=2e-06
MavD43_2	avC4#7	VBIAS#9	avC5#3	VSS#6	ne#20ivpcell#20PRIMLIB
+ L=5e-07	W=2e-06
+ AD=9.6e-13	AS=9.6e-13	PD=4.96e-06	PS=4.96e-06
+ NRD=8.650E-02	NRS=8.650E-02	wtot=2e-06
MavD45_1	VBAT#8	avC4#10	VBIAS#2	VBAT#5
+ pe#20ivpcell#20PRIMLIB	L=5e-07	W=4e-06
+ AD=1.92e-12	AS=1.92e-12	PD=8.96e-06	PS=8.96e-06
+ NRD=4.325E-02	NRS=4.325E-02	wtot=4e-06
MavD45_2	avC4#2	avC4#8	VBAT#2	VBAT#5	pe#20ivpcell#20PRIMLIB	L=5e-07
+ W=4e-06
+ AD=1.92e-12	AS=1.92e-12	PD=8.96e-06	PS=8.96e-06
+ NRD=4.325E-02	NRS=4.325E-02	wtot=4e-06
*
*
*       CANONICAL RESISTOR AND CAP/DIODE CARDS
*
RavD102_1	VSS#1	avC5	15013.0918	rtot="****" lstrip=0.113086
*
*       PARASITIC RESISTOR AND CAP/DIODE CARDS
*
Rd2	VBIAS#1	VBIAS#4	    1.0081	$MET1
+ $X=1.14 $Y=-1.8445
Rd3	VBIAS#4	VBIAS	6.213E-02	$MET1	$X=0.6455 $Y=-3.28
Rd4	VBIAS#4	VBIAS#6	    0.8192	$MET1
+ $X=1.14 $Y=-4.8225
Rd6	VBIAS#4	VBIAS#8	    8.0514	$MET1
+ $X=1.945 $Y=-3.255
Rd7	VBIAS#2	VBIAS#1	    0.9375	$MET1	$X=1.14 $Y=1.01
Rd8	VBIAS#5	VBIAS#6	    1.8750	$MET1
+ $X=1.14 $Y=-6.785
Rd9	VSS#1	VSS	   13.6071	$MET1	$X=1.125 $Y=-60.8
Rd10	VSS	VSS#2	8.147E-02	$MET1	$X=1.7175 $Y=-9.425
Rd11	VSS#2	VSS#4	    0.5493	$MET1	$X=2.18 $Y=-8.335
Rd13	VSS#2	VSS#7	3.653E-02	$MET1	$X=2.4145 $Y=-9.425
Rd15	VSS#7	VSS#6	    7.5000	$MET1	$X=2.655 $Y=-9.48
Rd16	VSS#3	VSS#4	    1.8750	$MET1	$X=2.18 $Y=-6.785
Rd17	VSS#6	VSS#7	    7.5000	$MET1	$X=2.655 $Y=-9.48
Rd19	avC4	avC4#4	    1.0077	$MET1	$X=9.965 $Y=-2.0145
Rd20	avC4#4	avC4#5	    7.9641	$MET1	$X=8.93 $Y=-3.225
Rd21	avC4#4	avC4#6	    0.8441	$MET1	$X=9.965 $Y=-4.595
Rd22	avC4#6	avC4#7	    1.8750	$MET1	$X=9.965 $Y=-6.755
Rd23	avC4#2	avC4	    0.9375	$MET1	$X=9.965 $Y=0.985
Rd25	VBAT#1	VBAT#4	    1.1765	$MET1	$X=8.925 $Y=4.799
Rd28	VBAT#4	VBAT	    0.2587	$MET1	$X=5.2465 $Y=5.555
Rd29	VBAT	VBAT#9	    1.1252	$MET1	$X=2.18 $Y=4.0125
Rd31	VBAT#2	VBAT#1	    0.9375	$MET1	$X=8.925 $Y=0.985
Rd32	VBAT#5	VBAT#4	    7.5000	$MET1	$X=6.98 $Y=5.53
Rd33	VBAT#5	VBAT#4	    7.5000	$MET1	$X=6.98 $Y=5.53
Rd34	VBAT#8	VBAT#9	    0.9375	$MET1	$X=2.18 $Y=1.01
Rd35	avC5	avC5#2	  133.7124	$MET1	$X=8.925 $Y=-8.38
Rd36	avC5#2	avC5#3	    1.8750	$MET1	$X=8.925 $Y=-6.755
Re1	avC4#8	avC4#9	   81.9915	$POLY1	$X=9.44 $Y=-1.635
Re2	avC4#9	avC4#10	  172.8796	$POLY1	$X=4.75 $Y=-2.235
Re3	avC4#9	avC4#5	   16.4076	$POLY1	$X=7.84 $Y=-2.7325
Re4	VBIAS#9	VBIAS#10	  164.5573	$POLY1
+ $X=9.44 $Y=-5.1675
Re5	VBIAS#10	VBIAS#11	   56.4980	$POLY1
+ $X=2.2325 $Y=-4.6
Re6	VBIAS#10	VBIAS#8	   23.3155	$POLY1
+ $X=2.8 $Y=-3.9275
*
*       CAP/DIODE CARDS
*
*
DavD157_1	VSS#6	VBAT#5	p_dnw#20auLvs#20PRIMLIB	1.4168e-10
+ 4.85e-05 	w=0 perimeter=4.85e-05 l=0
*
*
*       CAPACITOR CARDS
*
*
C1	VBIAS#4	VSS#6	1.23029E-16	$X=1.1405 $Y=-3.3335
C2	VBAT	avC4#10	1.52255E-17	$X=2.6635 $Y=2.861
C3	avC4#2	VBAT#5	6.36961E-17	$X=9.84 $Y=0.805
C4	VBIAS	VSS#6	1.42702E-16	$X=0.0655 $Y=-3.2805
C5	VBIAS	VBAT#5	7.51471E-17	$X=0.117 $Y=-3.2145
C6	VBIAS#2	VBAT	1.57245E-17	$X=2.2875 $Y=2.8305
C7	avC5	VSS#6	4.89152E-14	$X=1005.54 $Y=-10.8635
C8	avC4#4	VSS#6	1.52031E-16	$X=9.965 $Y=-3.305
C9	VBIAS#2	VBAT#8	1.9602E-16	$X=1.6405 $Y=1.099
C10	VBIAS#8	avC4#10	3.31269E-17	$X=2.637 $Y=-2.577
C11	avC4#2	VBAT#4	1.55839E-17	$X=8.834 $Y=2.5505
C12	VBIAS#9	avC4#5	2.67425E-17	$X=8.471 $Y=-3.8805
C13	VBIAS#9	VSS#6	4.02063E-16	$X=9.4415 $Y=-6.188
C14	avC4#4	VBAT#2	7.96675E-18	$X=9.727 $Y=-2.204
C15	VBIAS#11	VSS#6	9.20061E-17	$X=1.6655 $Y=-6.7145
C16	avC4#8	VBAT#5	6.67426E-17	$X=9.386 $Y=1.083
C17	avC4#5	VSS#6	1.82627E-16	$X=8.1685 $Y=-3.1585
C18	VBIAS#10	VSS#6	7.44194E-16	$X=2.8015 $Y=-4.3645
C19	avC4#10	VBAT#5	3.32142E-16	$X=1.9765 $Y=1.0755
C20	VBIAS#2	VBAT#5	5.43758E-17	$X=1.2735 $Y=0.864
C21	VBIAS#8	VSS#6	1.95166E-16	$X=2.8025 $Y=-3.3635
C22	VBAT#4	avC4#8	1.50587E-17	$X=8.7905 $Y=2.247
C23	VBAT#2	avC4#8	9.23407E-17	$X=9.2635 $Y=1.1855
C24	VBIAS#4	VBAT#5	7.08767E-17	$X=1.191 $Y=-3.254
C25	VBAT#2	avC4#2	1.9602E-16	$X=9.463 $Y=1.0725
C26	avC4#5	VBAT#5	1.10002E-17	$X=8.1535 $Y=-3.1175
C27	VBIAS#10	avC4#9	2.3913E-17	$X=5.533 $Y=-3.3675
C28	avC4#7	VBIAS#9	8.24717E-17	$X=9.723 $Y=-6.3365
C29	VBAT#2	avC4#9	6.81457E-18	$X=8.7715 $Y=-0.613
C30	VBAT#8	avC4#10	9.90263E-17	$X=2.013 $Y=1.2055
C31	avC5#3	VBIAS#9	8.27697E-17	$X=9.435 $Y=-6.1965
C32	VBIAS#2	avC4#10	1.09363E-16	$X=1.5355 $Y=0.9025
C33	VBIAS#4	avC4#10	4.34241E-17	$X=1.375 $Y=-1.9595
C34	avC4#5	VBAT#2	7.25978E-18	$X=8.2985 $Y=-2.378
C35	VSS#3	VBIAS#11	5.19996E-17	$X=1.871 $Y=-6.8045
C36	avC5#3	avC4#7	1.23191E-16	$X=9.9425 $Y=-6.4605
C37	avC4#4	VBAT#5	4.94947E-17	$X=9.928 $Y=-3.243
C38	avC4#7	VSS#6	7.13373E-17	$X=9.951 $Y=-6.4555
C39	avC5#3	VSS#6	4.90219E-14	$X=9.195 $Y=-7.245
C40	VSS#2	VBIAS#11	9.60879E-18	$X=1.967 $Y=-8.134
C41	avC4#4	VBIAS#9	3.00958E-17	$X=9.798 $Y=-4.2165
C42	VBIAS#8	VBAT#8	1.36914E-17	$X=2.7015 $Y=-2.6095
C43	VBIAS#10	avC4#10	4.00839E-18	$X=2.3855 $Y=-1.9335
C44	avC4#9	VBAT#5	8.47658E-16	$X=8.5755 $Y=-2.1005
C45	VSS#3	VBIAS#10	9.37147E-18	$X=2.42 $Y=-5.8985
C46	VBIAS#9	avC4#9	6.7359E-18	$X=9.077 $Y=-4.3975
C47	VBIAS#6	VSS#3	1.01552E-16	$X=1.502 $Y=-6.5135
C48	VBIAS#6	VSS#6	6.13584E-17	$X=1.14 $Y=-6.284
C49	VBIAS#11	VSS	1.35092E-17	$X=1.6435 $Y=-7.7965
C50	VBAT#8	VSS	4.86121E-19	$X=2.0525 $Y=-2.4555
C51	VBIAS#4	VSS	4.86121E-19	$X=1.1385 $Y=-4.755
C52	VBIAS#6	VSS	2.98814E-17	$X=1.139 $Y=-7.1465
*
*
.ENDS const_gm
*
