*
*
*
*                       LINUX           Mon Dec  9 20:55:03 2019
*
*
*
*  PROGRAM  advgen
*
*  Name           : advgen - Quantus QRC - (64-bit)
*  Version        : 17.1.2-s041
*  Build Date     : Wed Aug 23 16:57:50 PDT 2017
*
*  HSPICE LIBRARY
*
*!LENGTH_UNITS METERS
*
*
*
*
.SUBCKT AREG_R1 in out
*
*
*  caps2d version: 10
*
*
*       CANONICAL RESISTOR AND CAP/DIODE CARDS
*
RavD102_1	in#1	out#1	    1.0003	rtot="****" lstrip=7.535e-06
*
*       PARASITIC RESISTOR AND CAP/DIODE CARDS
*
Rd1	in#1	in	5.476E-02	$MET1	$X=0.454 $Y=-1.3
Rd2	out	out#1	5.397E-02	$MET1	$X=8.399 $Y=-1.3
*
*       CAPACITOR CARDS
*
*
C1	in	avC3	1.03222E-16	$X=0.229 $Y=-1.2995
C2	out#1	avC3	7.93734E-17	$X=8.2955 $Y=-1.3
C3	in#1	avC3	7.9568E-17	$X=0.5565 $Y=-1.3
C4	avC3	out	1.03417E-16	$X=8.623 $Y=-1.2995
*
*
.ENDS AREG_R1
*
