*
*
*
*                       LINUX           Tue Dec 10 05:19:58 2019
*
*
*
*  PROGRAM  advgen
*
*  Name           : advgen - Quantus QRC - (64-bit)
*  Version        : 17.1.2-s041
*  Build Date     : Wed Aug 23 16:57:50 PDT 2017
*
*  HSPICE LIBRARY
*
*!LENGTH_UNITS METERS
*
*
*
*
.SUBCKT AREG_R1 VSS in out
*
*
*  caps2d version: 10
*
*
*       CANONICAL RESISTOR AND CAP/DIODE CARDS
*
RavD90_1	in#75	out#76	   54.3750	rtot="****" lstrip=2.1e-06
+ $SUB=VSS#2 
RavD90_2	in#91	out#92	   54.3750	rtot="****" lstrip=2.1e-06
+ $SUB=VSS#2 
RavD90_3	in#93	out#94	   54.3750	rtot="****" lstrip=2.1e-06
+ $SUB=VSS#2 
RavD90_4	in#123	out#123	   54.3750
+ rtot="****" lstrip=2.1e-06	$SUB=VSS#2 
RavD90_5	in#95	out#96	   54.3750	rtot="****" lstrip=2.1e-06
+ $SUB=VSS#2 
RavD90_6	in#124	out#124	   54.3750
+ rtot="****" lstrip=2.1e-06	$SUB=VSS#2 
RavD90_7	in#125	out#125	   54.3750
+ rtot="****" lstrip=2.1e-06	$SUB=VSS#2 
RavD90_8	in#67	out#68	   54.3750	rtot="****" lstrip=2.1e-06
+ $SUB=VSS#2 
RavD90_9	in#126	out#126	   54.3750
+ rtot="****" lstrip=2.1e-06	$SUB=VSS#2 
RavD90_10	in#69	out#70	   54.3750	rtot="****" lstrip=2.1e-06
+ $SUB=VSS#2 
RavD90_11	in#71	out#72	   54.3750	rtot="****" lstrip=2.1e-06
+ $SUB=VSS#2 
RavD90_12	in#89	out#90	   54.3750	rtot="****" lstrip=2.1e-06
+ $SUB=VSS#2 
RavD90_13	in#73	out#74	   54.3750	rtot="****" lstrip=2.1e-06
+ $SUB=VSS#2 
RavD90_14	in#77	out#78	   54.3750	rtot="****" lstrip=2.1e-06
+ $SUB=VSS#2 
RavD90_15	in#97	out#98	   54.3750	rtot="****" lstrip=2.1e-06
+ $SUB=VSS#2 
RavD90_16	in#127	out#127	   54.3750
+ rtot="****" lstrip=2.1e-06	$SUB=VSS#2 
RavD90_17	in#79	out#80	   54.3750	rtot="****" lstrip=2.1e-06
+ $SUB=VSS#2 
RavD90_18	in#81	out#82	   54.3750	rtot="****" lstrip=2.1e-06
+ $SUB=VSS#2 
RavD90_19	in#99	out#100	   54.3750
+ rtot="****" lstrip=2.1e-06	$SUB=VSS#2 
RavD90_20	in#101	out#102	   54.3750
+ rtot="****" lstrip=2.1e-06	$SUB=VSS#2 
RavD90_21	in#128	out#128	   54.3750
+ rtot="****" lstrip=2.1e-06	$SUB=VSS#2 
RavD90_22	in#129	out#129	   54.3750
+ rtot="****" lstrip=2.1e-06	$SUB=VSS#2 
RavD90_23	in#130	out#130	   54.3750
+ rtot="****" lstrip=2.1e-06	$SUB=VSS#2 
RavD90_24	in#83	out#84	   54.3750	rtot="****" lstrip=2.1e-06
+ $SUB=VSS#2 
RavD90_25	in#103	out#104	   54.3750
+ rtot="****" lstrip=2.1e-06	$SUB=VSS#2 
RavD90_26	in#105	out#106	   54.3750
+ rtot="****" lstrip=2.1e-06	$SUB=VSS#2 
RavD90_27	in#107	out#108	   54.3750
+ rtot="****" lstrip=2.1e-06	$SUB=VSS#2 
RavD90_28	in#131	out#131	   54.3750
+ rtot="****" lstrip=2.1e-06	$SUB=VSS#2 
RavD90_29	in#132	out#132	   54.3750
+ rtot="****" lstrip=2.1e-06	$SUB=VSS#2 
RavD90_30	in#85	out#86	   54.3750	rtot="****" lstrip=2.1e-06
+ $SUB=VSS#2 
RavD90_31	in#87	out#88	   54.3750	rtot="****" lstrip=2.1e-06
+ $SUB=VSS#2 
RavD90_32	in#45	out#46	   54.3750	rtot="****" lstrip=2.1e-06
+ $SUB=VSS#2 
RavD90_33	in#47	out#48	   54.3750	rtot="****" lstrip=2.1e-06
+ $SUB=VSS#2 
RavD90_34	in#1	out#2	   54.3750	rtot="****" lstrip=2.1e-06
+ $SUB=VSS#2 
RavD90_35	in#3	out#4	   54.3750	rtot="****" lstrip=2.1e-06
+ $SUB=VSS#2 
RavD90_36	in#23	out#24	   54.3750	rtot="****" lstrip=2.1e-06
+ $SUB=VSS#2 
RavD90_37	in#25	out#26	   54.3750	rtot="****" lstrip=2.1e-06
+ $SUB=VSS#2 
RavD90_38	in#49	out#50	   54.3750	rtot="****" lstrip=2.1e-06
+ $SUB=VSS#2 
RavD90_39	in#5	out#6	   54.3750	rtot="****" lstrip=2.1e-06
+ $SUB=VSS#2 
RavD90_40	in#27	out#28	   54.3750	rtot="****" lstrip=2.1e-06
+ $SUB=VSS#2 
RavD90_41	in#29	out#30	   54.3750	rtot="****" lstrip=2.1e-06
+ $SUB=VSS#2 
RavD90_42	in#31	out#32	   54.3750	rtot="****" lstrip=2.1e-06
+ $SUB=VSS#2 
RavD90_43	in#51	out#52	   54.3750	rtot="****" lstrip=2.1e-06
+ $SUB=VSS#2 
RavD90_44	in#7	out#8	   54.3750	rtot="****" lstrip=2.1e-06
+ $SUB=VSS#2 
RavD90_45	in#53	out#54	   54.3750	rtot="****" lstrip=2.1e-06
+ $SUB=VSS#2 
RavD90_46	in#9	out#10	   54.3750	rtot="****" lstrip=2.1e-06
+ $SUB=VSS#2 
RavD90_47	in#33	out#34	   54.3750	rtot="****" lstrip=2.1e-06
+ $SUB=VSS#2 
RavD90_48	in#55	out#56	   54.3750	rtot="****" lstrip=2.1e-06
+ $SUB=VSS#2 
RavD90_49	in#11	out#12	   54.3750	rtot="****" lstrip=2.1e-06
+ $SUB=VSS#2 
RavD90_50	in#15	out#16	   54.3750	rtot="****" lstrip=2.1e-06
+ $SUB=VSS#2 
RavD90_51	in#35	out#36	   54.3750	rtot="****" lstrip=2.1e-06
+ $SUB=VSS#2 
RavD90_52	in#37	out#38	   54.3750	rtot="****" lstrip=2.1e-06
+ $SUB=VSS#2 
RavD90_53	in#57	out#58	   54.3750	rtot="****" lstrip=2.1e-06
+ $SUB=VSS#2 
RavD90_54	in#13	out#14	   54.3750	rtot="****" lstrip=2.1e-06
+ $SUB=VSS#2 
RavD90_55	in#59	out#60	   54.3750	rtot="****" lstrip=2.1e-06
+ $SUB=VSS#2 
RavD90_56	in#61	out#62	   54.3750	rtot="****" lstrip=2.1e-06
+ $SUB=VSS#2 
RavD90_57	in#17	out#18	   54.3750	rtot="****" lstrip=2.1e-06
+ $SUB=VSS#2 
RavD90_58	in#39	out#40	   54.3750	rtot="****" lstrip=2.1e-06
+ $SUB=VSS#2 
RavD90_59	in#63	out#64	   54.3750	rtot="****" lstrip=2.1e-06
+ $SUB=VSS#2 
RavD90_60	in#19	out#20	   54.3750	rtot="****" lstrip=2.1e-06
+ $SUB=VSS#2 
RavD90_61	in#65	out#66	   54.3750	rtot="****" lstrip=2.1e-06
+ $SUB=VSS#2 
RavD90_62	in#21	out#22	   54.3750	rtot="****" lstrip=2.1e-06
+ $SUB=VSS#2 
RavD90_63	in#41	out#42	   54.3750	rtot="****" lstrip=2.1e-06
+ $SUB=VSS#2 
RavD90_64	in#43	out#44	   54.3750	rtot="****" lstrip=2.1e-06
+ $SUB=VSS#2 
*
*       PARASITIC RESISTOR AND CAP/DIODE CARDS
*
Rd1	in#109	in#110	    1.1995	$MET1	$X=20.5705 $Y=-0.24
Rd2	in#110	in#111	    0.5403	$MET1	$X=15.24 $Y=-0.24
Rd3	in#111	in	    0.3438	$MET1	$X=11.803 $Y=-0.24
Rd4	in	in#112	    0.1965	$MET1	$X=9.9225 $Y=-0.24
Rd5	in#112	in#113	    0.5403	$MET1	$X=7.04 $Y=-0.24
Rd6	in#113	in#2	    0.7727	$MET1	$X=0.89 $Y=-0.88
Rd7	in#2	in#4	    0.4283	$MET1	$X=0.89 $Y=-2.2795
Rd8	in#4	in#6	    0.4283	$MET1	$X=0.89 $Y=-4.0595
Rd9	in#6	in#8	    0.4283	$MET1	$X=0.89 $Y=-5.8395
Rd10	in#8	in#10	    0.4283	$MET1	$X=0.89 $Y=-7.6195
Rd11	in#10	in#12	    0.4283	$MET1	$X=0.89 $Y=-9.3995
Rd12	in#12	in#14	    0.4283	$MET1	$X=0.89 $Y=-11.1795
Rd13	in#14	in#16	    0.4283	$MET1	$X=0.89 $Y=-12.9595
Rd14	in#16	in#18	    0.4283	$MET1	$X=0.89 $Y=-14.7395
Rd15	in#18	in#20	    0.4283	$MET1	$X=0.89 $Y=-16.5195
Rd16	in#20	in#22	    0.4283	$MET1	$X=0.89 $Y=-18.2995
Rd17	in#109	in#114	    0.4283	$MET1	$X=21.39 $Y=-4.0595
Rd18	in#114	in#115	    0.4283	$MET1	$X=21.39 $Y=-5.8395
Rd19	in#115	in#116	    0.4283	$MET1	$X=21.39 $Y=-7.6195
Rd20	in#116	in#117	    0.4283	$MET1	$X=21.39 $Y=-9.3995
Rd21	in#117	in#118	    0.4283	$MET1	$X=21.39 $Y=-11.1795
Rd22	in#118	in#119	    0.4283	$MET1	$X=21.39 $Y=-12.9595
Rd23	in#119	in#120	    0.4283	$MET1	$X=21.39 $Y=-14.7395
Rd24	in#120	in#121	    0.4283	$MET1	$X=21.39 $Y=-16.5195
Rd25	in#121	in#122	    7.9283	$MET1	$X=21.39 $Y=-18.2995
Rd26	in#110	in#90	    0.6547	$MET1	$X=17.29 $Y=-1.77
Rd27	in#90	in#92	    0.4283	$MET1	$X=17.29 $Y=-4.0595
Rd28	in#92	in#94	    0.4283	$MET1	$X=17.29 $Y=-5.8395
Rd29	in#94	in#96	    0.4283	$MET1	$X=17.29 $Y=-7.6195
Rd30	in#96	in#98	    0.4283	$MET1	$X=17.29 $Y=-9.3995
Rd31	in#98	in#100	    0.4283	$MET1	$X=17.29 $Y=-11.1795
Rd32	in#100	in#102	    0.4283	$MET1	$X=17.29 $Y=-12.9595
Rd33	in#102	in#104	    0.4283	$MET1	$X=17.29 $Y=-14.7395
Rd34	in#104	in#106	    0.4283	$MET1	$X=17.29 $Y=-16.5195
Rd35	in#106	in#108	    0.4283	$MET1	$X=17.29 $Y=-18.2995
Rd36	in#111	in#68	    0.2264	$MET1	$X=13.19 $Y=-0.88
Rd37	in#68	in#70	    0.4283	$MET1	$X=13.19 $Y=-2.2795
Rd38	in#70	in#72	    0.4283	$MET1	$X=13.19 $Y=-4.0595
Rd39	in#72	in#74	    0.4283	$MET1	$X=13.19 $Y=-5.8395
Rd40	in#74	in#76	    0.4283	$MET1	$X=13.19 $Y=-7.6195
Rd41	in#76	in#78	    0.4283	$MET1	$X=13.19 $Y=-9.3995
Rd42	in#78	in#80	    0.4283	$MET1	$X=13.19 $Y=-11.1795
Rd43	in#80	in#82	    0.4283	$MET1	$X=13.19 $Y=-12.9595
Rd44	in#82	in#84	    0.4283	$MET1	$X=13.19 $Y=-14.7395
Rd45	in#84	in#86	    0.4283	$MET1	$X=13.19 $Y=-16.5195
Rd46	in#86	in#88	    0.4283	$MET1	$X=13.19 $Y=-18.2995
Rd47	in#112	in#46	    0.2264	$MET1	$X=9.09 $Y=-0.88
Rd48	in#46	in#48	    0.4283	$MET1	$X=9.09 $Y=-2.2795
Rd49	in#48	in#50	    0.4283	$MET1	$X=9.09 $Y=-4.0595
Rd50	in#50	in#52	    0.4283	$MET1	$X=9.09 $Y=-5.8395
Rd51	in#52	in#54	    0.4283	$MET1	$X=9.09 $Y=-7.6195
Rd52	in#54	in#56	    0.4283	$MET1	$X=9.09 $Y=-9.3995
Rd53	in#56	in#58	    0.4283	$MET1	$X=9.09 $Y=-11.1795
Rd54	in#58	in#60	    0.4283	$MET1	$X=9.09 $Y=-12.9595
Rd55	in#60	in#62	    0.4283	$MET1	$X=9.09 $Y=-14.7395
Rd56	in#62	in#64	    0.4283	$MET1	$X=9.09 $Y=-16.5195
Rd57	in#64	in#66	    0.4283	$MET1	$X=9.09 $Y=-18.2995
Rd58	in#113	in#24	    0.2264	$MET1	$X=4.99 $Y=-0.88
Rd59	in#24	in#26	    0.4283	$MET1	$X=4.99 $Y=-2.2795
Rd60	in#26	in#28	    0.4283	$MET1	$X=4.99 $Y=-4.0595
Rd61	in#28	in#30	    0.4283	$MET1	$X=4.99 $Y=-5.8395
Rd62	in#30	in#32	    0.4283	$MET1	$X=4.99 $Y=-7.6195
Rd63	in#32	in#34	    0.4283	$MET1	$X=4.99 $Y=-9.3995
Rd64	in#34	in#36	    0.4283	$MET1	$X=4.99 $Y=-11.1795
Rd65	in#36	in#38	    0.4283	$MET1	$X=4.99 $Y=-12.9595
Rd66	in#38	in#40	    0.4283	$MET1	$X=4.99 $Y=-14.7395
Rd67	in#40	in#42	    0.4283	$MET1	$X=4.99 $Y=-16.5195
Rd68	in#42	in#44	    0.4283	$MET1	$X=4.99 $Y=-18.2995
Rd69	out#109	out#110	    7.9283	$MET1
+ $X=23.71 $Y=-4.0595
Rd70	out#110	out#111	    0.4283	$MET1
+ $X=23.71 $Y=-5.8395
Rd71	out#111	out#112	    0.4283	$MET1
+ $X=23.71 $Y=-7.6195
Rd72	out#112	out#113	    0.4283	$MET1
+ $X=23.71 $Y=-9.3995
Rd73	out#113	out#114	    0.4283	$MET1
+ $X=23.71 $Y=-11.1795
Rd74	out#114	out#115	    0.4283	$MET1
+ $X=23.71 $Y=-12.9595
Rd75	out#115	out#116	    0.4283	$MET1
+ $X=23.71 $Y=-14.7395
Rd76	out#116	out#117	    0.4283	$MET1
+ $X=23.71 $Y=-16.5195
Rd77	out#117	out#118	    0.4283	$MET1
+ $X=23.71 $Y=-18.2995
Rd78	out#118	out#119	    0.9000	$MET1
+ $X=22.268 $Y=-20.875
Rd79	out#119	out#120	    0.5403	$MET1
+ $X=17.56 $Y=-20.875
Rd80	out#120	out#121	    0.5403	$MET1
+ $X=13.46 $Y=-20.875
Rd81	out#121	out	    0.3310	$MET1	$X=10.0715 $Y=-20.875
Rd82	out	out#122	    0.2094	$MET1	$X=8.191 $Y=-20.875
Rd83	out#122	out#21	    0.9247	$MET1	$X=3.21 $Y=-19.9675
Rd84	out#119	out#107	    0.3552	$MET1
+ $X=19.61 $Y=-19.9675
Rd85	out#107	out#105	    0.4283	$MET1
+ $X=19.61 $Y=-18.3005
Rd86	out#105	out#103	    0.4283	$MET1
+ $X=19.61 $Y=-16.5205
Rd87	out#103	out#101	    0.4283	$MET1
+ $X=19.61 $Y=-14.7405
Rd88	out#101	out#99	    0.4283	$MET1	$X=19.61 $Y=-12.9605
Rd89	out#99	out#97	    0.4283	$MET1	$X=19.61 $Y=-11.1805
Rd90	out#97	out#95	    0.4283	$MET1	$X=19.61 $Y=-9.4005
Rd91	out#95	out#93	    0.4283	$MET1	$X=19.61 $Y=-7.6205
Rd92	out#93	out#91	    0.4283	$MET1	$X=19.61 $Y=-5.8405
Rd93	out#91	out#89	    0.4283	$MET1	$X=19.61 $Y=-4.0605
Rd94	out#120	out#87	    0.3552	$MET1	$X=15.51 $Y=-19.9675
Rd95	out#87	out#85	    0.4283	$MET1	$X=15.51 $Y=-18.3005
Rd96	out#85	out#83	    0.4283	$MET1	$X=15.51 $Y=-16.5205
Rd97	out#83	out#81	    0.4283	$MET1	$X=15.51 $Y=-14.7405
Rd98	out#81	out#79	    0.4283	$MET1	$X=15.51 $Y=-12.9605
Rd99	out#79	out#77	    0.4283	$MET1	$X=15.51 $Y=-11.1805
Rd100	out#77	out#75	    0.4283	$MET1	$X=15.51 $Y=-9.4005
Rd101	out#75	out#73	    0.4283	$MET1	$X=15.51 $Y=-7.6205
Rd102	out#73	out#71	    0.4283	$MET1	$X=15.51 $Y=-5.8405
Rd103	out#71	out#69	    0.4283	$MET1	$X=15.51 $Y=-4.0605
Rd104	out#69	out#67	    0.4283	$MET1	$X=15.51 $Y=-2.2805
Rd105	out#121	out#65	    0.3552	$MET1	$X=11.41 $Y=-19.9675
Rd106	out#65	out#63	    0.4283	$MET1	$X=11.41 $Y=-18.3005
Rd107	out#63	out#61	    0.4283	$MET1	$X=11.41 $Y=-16.5205
Rd108	out#61	out#59	    0.4283	$MET1	$X=11.41 $Y=-14.7405
Rd109	out#59	out#57	    0.4283	$MET1	$X=11.41 $Y=-12.9605
Rd110	out#57	out#55	    0.4283	$MET1	$X=11.41 $Y=-11.1805
Rd111	out#55	out#53	    0.4283	$MET1	$X=11.41 $Y=-9.4005
Rd112	out#53	out#51	    0.4283	$MET1	$X=11.41 $Y=-7.6205
Rd113	out#51	out#49	    0.4283	$MET1	$X=11.41 $Y=-5.8405
Rd114	out#49	out#47	    0.4283	$MET1	$X=11.41 $Y=-4.0605
Rd115	out#47	out#45	    0.4283	$MET1	$X=11.41 $Y=-2.2805
Rd116	out#122	out#43	    0.3552	$MET1	$X=7.31 $Y=-19.9675
Rd117	out#43	out#41	    0.4283	$MET1	$X=7.31 $Y=-18.3005
Rd118	out#41	out#39	    0.4283	$MET1	$X=7.31 $Y=-16.5205
Rd119	out#39	out#37	    0.4283	$MET1	$X=7.31 $Y=-14.7405
Rd120	out#37	out#35	    0.4283	$MET1	$X=7.31 $Y=-12.9605
Rd121	out#35	out#33	    0.4283	$MET1	$X=7.31 $Y=-11.1805
Rd122	out#33	out#31	    0.4283	$MET1	$X=7.31 $Y=-9.4005
Rd123	out#31	out#29	    0.4283	$MET1	$X=7.31 $Y=-7.6205
Rd124	out#29	out#27	    0.4283	$MET1	$X=7.31 $Y=-5.8405
Rd125	out#27	out#25	    0.4283	$MET1	$X=7.31 $Y=-4.0605
Rd126	out#25	out#23	    0.4283	$MET1	$X=7.31 $Y=-2.2805
Rd127	out#21	out#19	    0.4283	$MET1	$X=3.21 $Y=-18.3005
Rd128	out#19	out#17	    0.4283	$MET1	$X=3.21 $Y=-16.5205
Rd129	out#17	out#15	    0.4283	$MET1	$X=3.21 $Y=-14.7405
Rd130	out#15	out#13	    0.4283	$MET1	$X=3.21 $Y=-12.9605
Rd131	out#13	out#11	    0.4283	$MET1	$X=3.21 $Y=-11.1805
Rd132	out#11	out#9	    0.4283	$MET1	$X=3.21 $Y=-9.4005
Rd133	out#9	out#7	    0.4283	$MET1	$X=3.21 $Y=-7.6205
Rd134	out#7	out#5	    0.4283	$MET1	$X=3.21 $Y=-5.8405
Rd135	out#5	out#3	    0.4283	$MET1	$X=3.21 $Y=-4.0605
Rd136	out#3	out#1	    0.4283	$MET1	$X=3.21 $Y=-2.2805
Rd137	VSS	VSS#1	    0.1905	$MET1	$X=23.6005 $Y=-1.38
Rd139	VSS#1	VSS#2	    7.5000	$MET1	$X=22.795 $Y=-1.37
Rd140	VSS#2	VSS#1	    7.5000	$MET1	$X=22.795 $Y=-1.37
Re1	in#1	in#2	    9.5531	$POLY1	$X=0.89 $Y=-1.39
Re2	in#3	in#4	    9.5531	$POLY1	$X=0.89 $Y=-3.17
Re3	in#5	in#6	    9.5531	$POLY1	$X=0.89 $Y=-4.95
Re4	in#7	in#8	    9.5531	$POLY1	$X=0.89 $Y=-6.73
Re5	in#9	in#10	    9.5531	$POLY1	$X=0.89 $Y=-8.51
Re6	in#11	in#12	    9.5531	$POLY1	$X=0.89 $Y=-10.29
Re7	in#13	in#14	    9.5531	$POLY1	$X=0.89 $Y=-12.07
Re8	in#15	in#16	    9.5531	$POLY1	$X=0.89 $Y=-13.85
Re9	in#17	in#18	    9.5531	$POLY1	$X=0.89 $Y=-15.63
Re10	in#19	in#20	    9.5531	$POLY1	$X=0.89 $Y=-17.41
Re11	in#21	in#22	    9.5531	$POLY1	$X=0.89 $Y=-19.19
Re12	out#1	out#2	    9.5531	$POLY1	$X=3.21 $Y=-1.39
Re13	out#3	out#4	    9.5531	$POLY1	$X=3.21 $Y=-3.17
Re14	out#5	out#6	    9.5531	$POLY1	$X=3.21 $Y=-4.95
Re15	out#7	out#8	    9.5531	$POLY1	$X=3.21 $Y=-6.73
Re16	out#9	out#10	    9.5531	$POLY1	$X=3.21 $Y=-8.51
Re17	out#11	out#12	    9.5531	$POLY1	$X=3.21 $Y=-10.29
Re18	out#13	out#14	    9.5531	$POLY1	$X=3.21 $Y=-12.07
Re19	out#15	out#16	    9.5531	$POLY1	$X=3.21 $Y=-13.85
Re20	out#17	out#18	    9.5531	$POLY1	$X=3.21 $Y=-15.63
Re21	out#19	out#20	    9.5531	$POLY1	$X=3.21 $Y=-17.41
Re22	out#21	out#22	    9.5531	$POLY1	$X=3.21 $Y=-19.19
Re23	in#23	in#24	    9.5531	$POLY1	$X=4.99 $Y=-1.39
Re24	in#25	in#26	    9.5531	$POLY1	$X=4.99 $Y=-3.17
Re25	in#27	in#28	    9.5531	$POLY1	$X=4.99 $Y=-4.95
Re26	in#29	in#30	    9.5531	$POLY1	$X=4.99 $Y=-6.73
Re27	in#31	in#32	    9.5531	$POLY1	$X=4.99 $Y=-8.51
Re28	in#33	in#34	    9.5531	$POLY1	$X=4.99 $Y=-10.29
Re29	in#35	in#36	    9.5531	$POLY1	$X=4.99 $Y=-12.07
Re30	in#37	in#38	    9.5531	$POLY1	$X=4.99 $Y=-13.85
Re31	in#39	in#40	    9.5531	$POLY1	$X=4.99 $Y=-15.63
Re32	in#41	in#42	    9.5531	$POLY1	$X=4.99 $Y=-17.41
Re33	in#43	in#44	    9.5531	$POLY1	$X=4.99 $Y=-19.19
Re34	out#23	out#24	    9.5531	$POLY1	$X=7.31 $Y=-1.39
Re35	out#25	out#26	    9.5531	$POLY1	$X=7.31 $Y=-3.17
Re36	out#27	out#28	    9.5531	$POLY1	$X=7.31 $Y=-4.95
Re37	out#29	out#30	    9.5531	$POLY1	$X=7.31 $Y=-6.73
Re38	out#31	out#32	    9.5531	$POLY1	$X=7.31 $Y=-8.51
Re39	out#33	out#34	    9.5531	$POLY1	$X=7.31 $Y=-10.29
Re40	out#35	out#36	    9.5531	$POLY1	$X=7.31 $Y=-12.07
Re41	out#37	out#38	    9.5531	$POLY1	$X=7.31 $Y=-13.85
Re42	out#39	out#40	    9.5531	$POLY1	$X=7.31 $Y=-15.63
Re43	out#41	out#42	    9.5531	$POLY1	$X=7.31 $Y=-17.41
Re44	out#43	out#44	    9.5531	$POLY1	$X=7.31 $Y=-19.19
Re45	in#45	in#46	    9.5531	$POLY1	$X=9.09 $Y=-1.39
Re46	in#47	in#48	    9.5531	$POLY1	$X=9.09 $Y=-3.17
Re47	in#49	in#50	    9.5531	$POLY1	$X=9.09 $Y=-4.95
Re48	in#51	in#52	    9.5531	$POLY1	$X=9.09 $Y=-6.73
Re49	in#53	in#54	    9.5531	$POLY1	$X=9.09 $Y=-8.51
Re50	in#55	in#56	    9.5531	$POLY1	$X=9.09 $Y=-10.29
Re51	in#57	in#58	    9.5531	$POLY1	$X=9.09 $Y=-12.07
Re52	in#59	in#60	    9.5531	$POLY1	$X=9.09 $Y=-13.85
Re53	in#61	in#62	    9.5531	$POLY1	$X=9.09 $Y=-15.63
Re54	in#63	in#64	    9.5531	$POLY1	$X=9.09 $Y=-17.41
Re55	in#65	in#66	    9.5531	$POLY1	$X=9.09 $Y=-19.19
Re56	out#45	out#46	    9.5531	$POLY1	$X=11.41 $Y=-1.39
Re57	out#47	out#48	    9.5531	$POLY1	$X=11.41 $Y=-3.17
Re58	out#49	out#50	    9.5531	$POLY1	$X=11.41 $Y=-4.95
Re59	out#51	out#52	    9.5531	$POLY1	$X=11.41 $Y=-6.73
Re60	out#53	out#54	    9.5531	$POLY1	$X=11.41 $Y=-8.51
Re61	out#55	out#56	    9.5531	$POLY1	$X=11.41 $Y=-10.29
Re62	out#57	out#58	    9.5531	$POLY1	$X=11.41 $Y=-12.07
Re63	out#59	out#60	    9.5531	$POLY1	$X=11.41 $Y=-13.85
Re64	out#61	out#62	    9.5531	$POLY1	$X=11.41 $Y=-15.63
Re65	out#63	out#64	    9.5531	$POLY1	$X=11.41 $Y=-17.41
Re66	out#65	out#66	    9.5531	$POLY1	$X=11.41 $Y=-19.19
Re67	in#67	in#68	    9.5531	$POLY1	$X=13.19 $Y=-1.39
Re68	in#69	in#70	    9.5531	$POLY1	$X=13.19 $Y=-3.17
Re69	in#71	in#72	    9.5531	$POLY1	$X=13.19 $Y=-4.95
Re70	in#73	in#74	    9.5531	$POLY1	$X=13.19 $Y=-6.73
Re71	in#75	in#76	    9.5531	$POLY1	$X=13.19 $Y=-8.51
Re72	in#77	in#78	    9.5531	$POLY1	$X=13.19 $Y=-10.29
Re73	in#79	in#80	    9.5531	$POLY1	$X=13.19 $Y=-12.07
Re74	in#81	in#82	    9.5531	$POLY1	$X=13.19 $Y=-13.85
Re75	in#83	in#84	    9.5531	$POLY1	$X=13.19 $Y=-15.63
Re76	in#85	in#86	    9.5531	$POLY1	$X=13.19 $Y=-17.41
Re77	in#87	in#88	    9.5531	$POLY1	$X=13.19 $Y=-19.19
Re78	out#67	out#68	    9.5531	$POLY1	$X=15.51 $Y=-1.39
Re79	out#69	out#70	    9.5531	$POLY1	$X=15.51 $Y=-3.17
Re80	out#71	out#72	    9.5531	$POLY1	$X=15.51 $Y=-4.95
Re81	out#73	out#74	    9.5531	$POLY1	$X=15.51 $Y=-6.73
Re82	out#75	out#76	    9.5531	$POLY1	$X=15.51 $Y=-8.51
Re83	out#77	out#78	    9.5531	$POLY1	$X=15.51 $Y=-10.29
Re84	out#79	out#80	    9.5531	$POLY1	$X=15.51 $Y=-12.07
Re85	out#81	out#82	    9.5531	$POLY1	$X=15.51 $Y=-13.85
Re86	out#83	out#84	    9.5531	$POLY1	$X=15.51 $Y=-15.63
Re87	out#85	out#86	    9.5531	$POLY1	$X=15.51 $Y=-17.41
Re88	out#87	out#88	    9.5531	$POLY1	$X=15.51 $Y=-19.19
Re89	in#89	in#90	    9.5531	$POLY1	$X=17.29 $Y=-3.17
Re90	in#91	in#92	    9.5531	$POLY1	$X=17.29 $Y=-4.95
Re91	in#93	in#94	    9.5531	$POLY1	$X=17.29 $Y=-6.73
Re92	in#95	in#96	    9.5531	$POLY1	$X=17.29 $Y=-8.51
Re93	in#97	in#98	    9.5531	$POLY1	$X=17.29 $Y=-10.29
Re94	in#99	in#100	    9.5531	$POLY1	$X=17.29 $Y=-12.07
Re95	in#101	in#102	    9.5531	$POLY1	$X=17.29 $Y=-13.85
Re96	in#103	in#104	    9.5531	$POLY1	$X=17.29 $Y=-15.63
Re97	in#105	in#106	    9.5531	$POLY1	$X=17.29 $Y=-17.41
Re98	in#107	in#108	    9.5531	$POLY1	$X=17.29 $Y=-19.19
Re99	out#89	out#90	    9.5531	$POLY1	$X=19.61 $Y=-3.17
Re100	out#91	out#92	    9.5531	$POLY1	$X=19.61 $Y=-4.95
Re101	out#93	out#94	    9.5531	$POLY1	$X=19.61 $Y=-6.73
Re102	out#95	out#96	    9.5531	$POLY1	$X=19.61 $Y=-8.51
Re103	out#97	out#98	    9.5531	$POLY1	$X=19.61 $Y=-10.29
Re104	out#99	out#100	    9.5531	$POLY1	$X=19.61 $Y=-12.07
Re105	out#101	out#102	    9.5531	$POLY1
+ $X=19.61 $Y=-13.85
Re106	out#103	out#104	    9.5531	$POLY1
+ $X=19.61 $Y=-15.63
Re107	out#105	out#106	    9.5531	$POLY1
+ $X=19.61 $Y=-17.41
Re108	out#107	out#108	    9.5531	$POLY1
+ $X=19.61 $Y=-19.19
Re109	in#123	in#109	    9.5531	$POLY1	$X=21.39 $Y=-3.17
Re110	in#124	in#114	    9.5531	$POLY1	$X=21.39 $Y=-4.95
Re111	in#125	in#115	    9.5531	$POLY1	$X=21.39 $Y=-6.73
Re112	in#126	in#116	    9.5531	$POLY1	$X=21.39 $Y=-8.51
Re113	in#127	in#117	    9.5531	$POLY1	$X=21.39 $Y=-10.29
Re114	in#128	in#118	    9.5531	$POLY1	$X=21.39 $Y=-12.07
Re115	in#129	in#119	    9.5531	$POLY1	$X=21.39 $Y=-13.85
Re116	in#130	in#120	    9.5531	$POLY1	$X=21.39 $Y=-15.63
Re117	in#131	in#121	    9.5531	$POLY1	$X=21.39 $Y=-17.41
Re118	in#132	in#122	    2.0531	$POLY1	$X=21.39 $Y=-19.19
Re119	out#109	out#123	    2.0531	$POLY1
+ $X=23.71 $Y=-3.17
Re120	out#110	out#124	    9.5531	$POLY1
+ $X=23.71 $Y=-4.95
Re121	out#111	out#125	    9.5531	$POLY1
+ $X=23.71 $Y=-6.73
Re122	out#112	out#126	    9.5531	$POLY1
+ $X=23.71 $Y=-8.51
Re123	out#113	out#127	    9.5531	$POLY1
+ $X=23.71 $Y=-10.29
Re124	out#114	out#128	    9.5531	$POLY1
+ $X=23.71 $Y=-12.07
Re125	out#115	out#129	    9.5531	$POLY1
+ $X=23.71 $Y=-13.85
Re126	out#116	out#130	    9.5531	$POLY1
+ $X=23.71 $Y=-15.63
Re127	out#117	out#131	    9.5531	$POLY1
+ $X=23.71 $Y=-17.41
Re128	out#118	out#132	    9.5531	$POLY1
+ $X=23.71 $Y=-19.19
*
*       CAPACITOR CARDS
*
*
C1	out#77	VSS#2	1.28464E-16	$X=15.534 $Y=-10.289
C2	out#13	in#36	5.21371E-17	$X=4.0995 $Y=-12.07
C3	in#4	VSS#2	1.51557E-16	$X=0.8665 $Y=-3.1695
C4	out#53	VSS#2	1.28464E-16	$X=11.435 $Y=-8.509
C5	in#117	VSS#2	1.29184E-16	$X=21.3635 $Y=-10.2885
C6	in#74	out#73	4.02632E-17	$X=14.3495 $Y=-6.73
C7	in#114	out#110	4.16104E-17	$X=22.5495 $Y=-4.95
C8	out#29	VSS#2	1.28464E-16	$X=7.3355 $Y=-6.7295
C9	in#100	VSS#2	1.28464E-16	$X=17.264 $Y=-12.068
C10	in#64	out#63	4.02632E-17	$X=10.249 $Y=-17.41
C11	in#106	out#105	4.02632E-17	$X=18.4495 $Y=-17.41
C12	out#5	VSS#2	1.2916E-16	$X=3.2365 $Y=-4.9495
C13	in#78	VSS#2	1.28464E-16	$X=13.1645 $Y=-10.2885
C14	out#113	VSS#2	1.51552E-16	$X=23.733 $Y=-10.2885
C15	out#23	in#112	4.17035E-17	$X=7.471 $Y=-1.289
C16	in#4	out#3	4.15899E-17	$X=2.0495 $Y=-3.17
C17	in#54	VSS#2	1.28464E-16	$X=9.0655 $Y=-8.5085
C18	out#99	VSS#2	1.28464E-16	$X=19.6335 $Y=-12.0685
C19	out#91	in#114	5.21371E-17	$X=20.4995 $Y=-4.95
C20	in#30	VSS#2	1.28464E-16	$X=4.966 $Y=-6.729
C21	out#79	VSS#2	1.28464E-16	$X=15.534 $Y=-12.0685
C22	in#90	out#89	2.83102E-17	$X=18.801 $Y=-3.242
C23	out#121	in#88	2.63605E-17	$X=12.8465 $Y=-19.293
C24	in#6	VSS#2	1.51528E-16	$X=0.8665 $Y=-4.949
C25	out#59	in#82	5.21371E-17	$X=12.2995 $Y=-13.85
C26	in#36	out#35	4.02632E-17	$X=6.1495 $Y=-12.07
C27	out#81	in#102	5.21371E-17	$X=16.3995 $Y=-13.85
C28	in#24	out#23	2.83343E-17	$X=6.273 $Y=-1.532
C29	out#55	VSS#2	1.28464E-16	$X=11.435 $Y=-10.289
C30	out#45	in#68	3.90026E-17	$X=12.209 $Y=-1.532
C31	in#118	VSS#2	1.29184E-16	$X=21.3635 $Y=-12.068
C32	in#115	out#111	4.16104E-17	$X=22.5495 $Y=-6.73
C33	out#3	in#26	5.21371E-17	$X=4.0995 $Y=-3.17
C34	out#31	VSS#2	1.28464E-16	$X=7.3355 $Y=-8.509
C35	in#102	VSS#2	1.28464E-16	$X=17.264 $Y=-13.8475
C36	in#52	out#51	4.02632E-17	$X=10.249 $Y=-6.73
C37	out#45	in	4.17035E-17	$X=11.26 $Y=-1.1645
C38	out#33	in#56	5.21371E-17	$X=8.1995 $Y=-10.29
C39	out#7	VSS#2	1.2916E-16	$X=3.2365 $Y=-6.7295
C40	in#80	VSS#2	1.28464E-16	$X=13.1645 $Y=-12.068
C41	in#76	out#75	4.02632E-17	$X=14.3495 $Y=-8.51
C42	out#114	VSS#2	1.51552E-16	$X=23.733 $Y=-12.068
C43	in#110	VSS#2	5.71283E-16	$X=19.0115 $Y=-0.2415
C44	in#16	out#15	4.15899E-17	$X=2.0495 $Y=-13.85
C45	in#56	VSS#2	1.28464E-16	$X=9.0655 $Y=-10.2885
C46	in#108	out#107	2.83343E-17	$X=18.245 $Y=-19.073
C47	out#101	VSS#2	1.28464E-16	$X=19.6335 $Y=-13.848
C48	out#15	in#38	5.21371E-17	$X=4.0995 $Y=-13.85
C49	in#32	VSS#2	1.28464E-16	$X=4.966 $Y=-8.5085
C50	in	VSS#2	1.71829E-16	$X=10.8635 $Y=-0.2405
C51	out#93	in#115	5.21371E-17	$X=20.4995 $Y=-6.73
C52	out#81	VSS#2	1.28464E-16	$X=15.534 $Y=-13.848
C53	in#66	out#65	2.83343E-17	$X=10.045 $Y=-19.073
C54	in#8	VSS#2	1.51528E-16	$X=0.8665 $Y=-6.729
C55	out#57	VSS#2	1.28464E-16	$X=11.435 $Y=-12.0685
C56	in#92	out#91	4.02632E-17	$X=18.4495 $Y=-4.95
C57	in#119	VSS#2	1.29184E-16	$X=21.3635 $Y=-13.8475
C58	out#33	VSS#2	1.28464E-16	$X=7.3355 $Y=-10.289
C59	in#116	out#112	4.16104E-17	$X=22.5495 $Y=-8.51
C60	in#104	VSS#2	1.28464E-16	$X=17.264 $Y=-15.6275
C61	out#83	in#104	5.21371E-17	$X=16.3995 $Y=-15.63
C62	out	in#66	2.63605E-17	$X=9.0845 $Y=-19.579
C63	out#9	VSS#2	1.2916E-16	$X=3.2365 $Y=-8.509
C64	in#82	VSS#2	1.28464E-16	$X=13.1645 $Y=-13.8475
C65	out#61	in#84	5.21371E-17	$X=12.2995 $Y=-15.63
C66	in#6	out#5	4.15899E-17	$X=2.0495 $Y=-4.95
C67	out#115	VSS#2	1.51552E-16	$X=23.733 $Y=-13.8475
C68	out#47	in#70	5.21371E-17	$X=12.2995 $Y=-3.17
C69	in#111	VSS#2	3.3726E-16	$X=13.1905 $Y=-0.4105
C70	in#58	VSS#2	1.28464E-16	$X=9.0655 $Y=-12.068
C71	out#103	VSS#2	1.28464E-16	$X=19.6335 $Y=-15.628
C72	in#38	out#37	4.02632E-17	$X=6.1495 $Y=-13.85
C73	in#26	out#25	4.02632E-17	$X=6.1495 $Y=-3.17
C74	in#34	VSS#2	1.28464E-16	$X=4.966 $Y=-10.2885
C75	in#54	out#53	4.02632E-17	$X=10.249 $Y=-8.51
C76	out	VSS#2	1.73127E-16	$X=9.1325 $Y=-20.8705
C77	out#83	VSS#2	1.28464E-16	$X=15.534 $Y=-15.628
C78	in#78	out#77	4.02632E-17	$X=14.3495 $Y=-10.29
C79	out#67	in#90	1.39733E-17	$X=16.1425 $Y=-2.0875
C80	out#1	in#113	4.17035E-17	$X=3.4995 $Y=-1.395
C81	in#10	VSS#2	1.51528E-16	$X=0.8665 $Y=-8.5085
C82	out#95	in#116	5.21371E-17	$X=20.4995 $Y=-8.51
C83	out#5	in#28	5.21371E-17	$X=4.0995 $Y=-4.95
C84	out#35	in#58	5.21371E-17	$X=8.1995 $Y=-12.07
C85	out#59	VSS#2	1.28464E-16	$X=11.435 $Y=-13.848
C86	in#120	VSS#2	1.29184E-16	$X=21.3635 $Y=-15.6275
C87	out#35	VSS#2	1.28464E-16	$X=7.3355 $Y=-12.0685
C88	in#106	VSS#2	1.28493E-16	$X=17.264 $Y=-17.407
C89	in#94	out#93	4.02632E-17	$X=18.4495 $Y=-6.73
C90	in#117	out#113	4.16104E-17	$X=22.5495 $Y=-10.29
C91	out#11	VSS#2	1.2916E-16	$X=3.2365 $Y=-10.289
C92	in#84	VSS#2	1.28464E-16	$X=13.1645 $Y=-15.6275
C93	out#116	VSS#2	1.51552E-16	$X=23.733 $Y=-15.6275
C94	out#69	in#90	5.21371E-17	$X=16.3085 $Y=-3.113
C95	in#18	out#17	4.15899E-17	$X=2.0495 $Y=-15.63
C96	out#17	in#40	5.21371E-17	$X=4.0995 $Y=-15.63
C97	in#112	VSS#2	2.72063E-16	$X=7.983 $Y=-0.241
C98	out#23	in#46	3.90026E-17	$X=8.109 $Y=-1.532
C99	in#60	VSS#2	1.28464E-16	$X=9.0655 $Y=-13.8475
C100	out#85	in#106	5.21371E-17	$X=16.3995 $Y=-17.41
C101	out#105	VSS#2	1.28493E-16	$X=19.6335 $Y=-17.4075
C102	in#36	VSS#2	1.28464E-16	$X=4.966 $Y=-12.068
C103	out#85	VSS#2	1.28493E-16	$X=15.534 $Y=-17.4075
C104	out#49	in#72	5.21371E-17	$X=12.2995 $Y=-4.95
C105	in#12	VSS#2	1.51528E-16	$X=0.8665 $Y=-10.2885
C106	out#63	in#86	5.21371E-17	$X=12.2995 $Y=-17.41
C107	out#61	VSS#2	1.28464E-16	$X=11.435 $Y=-15.628
C108	in#121	VSS#2	1.29213E-16	$X=21.3635 $Y=-17.407
C109	out#97	in#117	5.21371E-17	$X=20.4995 $Y=-10.29
C110	out#37	VSS#2	1.28464E-16	$X=7.3355 $Y=-13.848
C111	in#108	VSS#2	1.15496E-16	$X=17.264 $Y=-19.0085
C112	in#80	out#79	4.02632E-17	$X=14.3495 $Y=-12.07
C113	in#8	out#7	4.15899E-17	$X=2.0495 $Y=-6.73
C114	out#13	VSS#2	1.2916E-16	$X=3.2365 $Y=-12.0685
C115	in#56	out#55	4.02632E-17	$X=10.249 $Y=-10.29
C116	in#118	out#114	4.16104E-17	$X=22.5495 $Y=-12.0695
C117	in#86	VSS#2	1.28493E-16	$X=13.1645 $Y=-17.407
C118	in#28	out#27	4.02632E-17	$X=6.1495 $Y=-4.95
C119	in#40	out#39	4.02632E-17	$X=6.1495 $Y=-15.63
C120	out#117	VSS#2	1.51581E-16	$X=23.733 $Y=-17.407
C121	in#96	out#95	4.02632E-17	$X=18.4495 $Y=-8.51
C122	in#113	VSS#2	4.23721E-16	$X=4.996 $Y=-0.4105
C123	in#62	VSS#2	1.28464E-16	$X=9.0655 $Y=-15.6275
C124	out#107	VSS#2	1.31486E-16	$X=19.6335 $Y=-19.1595
C125	out#37	in#60	5.21371E-17	$X=8.1995 $Y=-13.85
C126	in#38	VSS#2	1.28464E-16	$X=4.966 $Y=-13.8475
C127	out#7	in#30	5.21371E-17	$X=4.0995 $Y=-6.73
C128	out#71	in#92	5.21371E-17	$X=16.3995 $Y=-4.95
C129	out#87	VSS#2	1.31486E-16	$X=15.534 $Y=-19.1595
C130	in#14	VSS#2	1.51528E-16	$X=0.8665 $Y=-12.068
C131	out#87	in#108	3.90026E-17	$X=16.5485 $Y=-19.073
C132	out#63	VSS#2	1.28493E-16	$X=11.435 $Y=-17.4075
C133	in#122	VSS#2	1.15865E-16	$X=21.3635 $Y=-19.0085
C134	out#25	in#48	5.21371E-17	$X=8.1995 $Y=-3.17
C135	out#39	VSS#2	1.28464E-16	$X=7.3355 $Y=-15.628
C136	out#67	VSS#2	1.2693E-16	$X=15.534 $Y=-1.5705
C137	out#99	in#118	5.21371E-17	$X=20.4995 $Y=-12.07
C138	out#15	VSS#2	1.2916E-16	$X=3.2365 $Y=-13.848
C139	out#19	in#42	5.21371E-17	$X=4.0995 $Y=-17.41
C140	out#51	in#74	5.21371E-17	$X=12.2995 $Y=-6.73
C141	in#88	VSS#2	1.15496E-16	$X=13.1645 $Y=-19.0085
C142	in#20	out#19	4.15899E-17	$X=2.0495 $Y=-17.41
C143	out#118	VSS#2	4.04293E-16	$X=23.849 $Y=-20.0245
C144	out#65	in#88	3.90026E-17	$X=12.4485 $Y=-19.073
C145	in#119	out#115	4.16104E-17	$X=22.5495 $Y=-13.85
C146	out#119	VSS#2	4.74385E-16	$X=19.6065 $Y=-20.559
C147	out#122	in#44	2.63605E-17	$X=5.1275 $Y=-19.337
C148	in#64	VSS#2	1.28493E-16	$X=9.0655 $Y=-17.407
C149	in#90	VSS#2	1.72919E-16	$X=17.264 $Y=-3.042
C150	in#82	out#81	4.02632E-17	$X=14.3495 $Y=-13.85
C151	in#98	out#97	4.02632E-17	$X=18.4495 $Y=-10.29
C152	in#40	VSS#2	1.28464E-16	$X=4.966 $Y=-15.6275
C153	in#68	VSS#2	1.14088E-16	$X=13.1645 $Y=-1.485
C154	in#16	VSS#2	1.51528E-16	$X=0.8665 $Y=-13.8475
C155	in#58	out#57	4.02632E-17	$X=10.249 $Y=-12.07
C156	out#65	VSS#2	1.31486E-16	$X=11.435 $Y=-19.1595
C157	out#89	VSS#2	1.42011E-16	$X=19.634 $Y=-3.35
C158	out#73	in#94	5.21371E-17	$X=16.3995 $Y=-6.73
C159	in#30	out#29	4.02632E-17	$X=6.1495 $Y=-6.73
C160	out#41	VSS#2	1.28493E-16	$X=7.3355 $Y=-17.4075
C161	in#42	out#41	4.02632E-17	$X=6.1495 $Y=-17.41
C162	out#69	VSS#2	1.28223E-16	$X=15.534 $Y=-3.17
C163	in#10	out#9	4.15899E-17	$X=2.0495 $Y=-8.51
C164	out#39	in#62	5.21371E-17	$X=8.1995 $Y=-15.63
C165	out#17	VSS#2	1.2916E-16	$X=3.2365 $Y=-15.628
C166	in#68	out#67	2.89471E-17	$X=14.473 $Y=-1.532
C167	out#45	VSS#2	1.12326E-16	$X=11.4345 $Y=-1.5705
C168	out#101	in#119	5.21371E-17	$X=20.4995 $Y=-13.85
C169	in#109	VSS#2	3.85512E-16	$X=21.3615 $Y=-2.5845
C170	out#120	VSS#2	4.1525E-16	$X=15.509 $Y=-20.5605
C171	out#67	in#110	6.33829E-17	$X=15.953 $Y=-1.41
C172	in#66	VSS#2	1.15496E-16	$X=9.065 $Y=-19.0085
C173	out#9	in#32	5.21371E-17	$X=4.0995 $Y=-8.51
C174	in#120	out#116	4.16104E-17	$X=22.5495 $Y=-15.63
C175	in#92	VSS#2	1.28493E-16	$X=17.264 $Y=-4.949
C176	in#42	VSS#2	1.28493E-16	$X=4.966 $Y=-17.407
C177	out#27	in#50	5.21371E-17	$X=8.1995 $Y=-4.95
C178	in#70	VSS#2	1.28493E-16	$X=13.1645 $Y=-3.1695
C179	out#53	in#76	5.21371E-17	$X=12.2995 $Y=-8.51
C180	out#109	VSS#2	1.46589E-16	$X=23.7335 $Y=-3.3495
C181	in#18	VSS#2	1.51528E-16	$X=0.8665 $Y=-15.6275
C182	in#100	out#99	4.02632E-17	$X=18.4495 $Y=-12.07
C183	in#46	VSS#2	1.14372E-16	$X=9.065 $Y=-1.485
C184	in#109	VSS#1	5.24932E-17	$X=22.43 $Y=-1.747
C185	in#46	out#45	2.83343E-17	$X=10.373 $Y=-1.532
C186	out#91	VSS#2	1.28493E-16	$X=19.6335 $Y=-4.9495
C187	in#84	out#83	4.02632E-17	$X=14.3495 $Y=-15.63
C188	out#43	VSS#2	1.31486E-16	$X=7.3355 $Y=-19.1595
C189	out#71	VSS#2	1.28464E-16	$X=15.534 $Y=-4.9495
C190	out#21	in#44	3.90026E-17	$X=4.7405 $Y=-19.069
C191	out#19	VSS#2	1.29189E-16	$X=3.2365 $Y=-17.4075
C192	out#75	in#96	5.21371E-17	$X=16.3995 $Y=-8.51
C193	in#22	out#21	5.5912E-17	$X=1.1705 $Y=-19.069
C194	out#47	VSS#2	1.28223E-16	$X=11.435 $Y=-3.17
C195	in#114	VSS#2	1.29213E-16	$X=21.3635 $Y=-4.949
C196	out#121	VSS#2	3.45992E-16	$X=11.4115 $Y=-20.5625
C197	in#60	out#59	4.02632E-17	$X=10.249 $Y=-13.85
C198	out#23	VSS#2	1.12326E-16	$X=7.335 $Y=-1.5705
C199	in#94	VSS#2	1.28464E-16	$X=17.264 $Y=-6.729
C200	out#103	in#120	5.21371E-17	$X=20.4995 $Y=-15.63
C201	in#121	out#117	4.16104E-17	$X=22.5495 $Y=-17.41
C202	in#70	out#69	4.02632E-17	$X=14.3495 $Y=-3.17
C203	in#44	VSS#2	1.15496E-16	$X=4.9655 $Y=-19.0085
C204	in#72	VSS#2	1.28464E-16	$X=13.1645 $Y=-4.949
C205	in#32	out#31	4.02632E-17	$X=6.1495 $Y=-8.51
C206	out#110	VSS#2	1.51581E-16	$X=23.733 $Y=-4.949
C207	in#20	VSS#2	1.51557E-16	$X=0.8665 $Y=-17.407
C208	in#48	VSS#2	1.28493E-16	$X=9.0655 $Y=-3.1695
C209	in#44	out#43	2.83343E-17	$X=5.945 $Y=-19.073
C210	out#41	in#64	5.21371E-17	$X=8.1995 $Y=-17.41
C211	out#93	VSS#2	1.28464E-16	$X=19.6335 $Y=-6.7295
C212	in#12	out#11	4.15899E-17	$X=2.0495 $Y=-10.29
C213	in#24	VSS#2	1.14372E-16	$X=4.9655 $Y=-1.485
C214	in#102	out#101	4.02632E-17	$X=18.4495 $Y=-13.85
C215	out#73	VSS#2	1.28464E-16	$X=15.534 $Y=-6.7295
C216	out#21	VSS#2	6.0673E-16	$X=3.2435 $Y=-19.451
C217	out#55	in#78	5.21371E-17	$X=12.2995 $Y=-10.29
C218	out#49	VSS#2	1.28464E-16	$X=11.435 $Y=-4.9495
C219	out#11	in#34	5.21371E-17	$X=4.0995 $Y=-10.29
C220	out#29	in#52	5.21371E-17	$X=8.1995 $Y=-6.73
C221	in#115	VSS#2	1.29184E-16	$X=21.3635 $Y=-6.729
C222	out#122	VSS#2	3.60544E-16	$X=5.901 $Y=-20.865
C223	in#86	out#85	4.02632E-17	$X=14.3495 $Y=-17.41
C224	out#119	in#122	2.63605E-17	$X=21.118 $Y=-19.2295
C225	in#48	out#47	4.02632E-17	$X=10.249 $Y=-3.17
C226	out#25	VSS#2	1.28223E-16	$X=7.3355 $Y=-3.17
C227	in#96	VSS#2	1.28464E-16	$X=17.264 $Y=-8.5085
C228	out#77	in#98	5.21371E-17	$X=16.3995 $Y=-10.29
C229	out#1	VSS#2	1.12671E-16	$X=3.2355 $Y=-1.5705
C230	in#74	VSS#2	1.28464E-16	$X=13.1645 $Y=-6.729
C231	in#122	out#118	2.95397E-17	$X=21.8665 $Y=-19.2165
C232	out#105	in#121	5.21371E-17	$X=20.4995 $Y=-17.41
C233	out#120	in#108	2.63605E-17	$X=16.9895 $Y=-19.2545
C234	out#111	VSS#2	1.51552E-16	$X=23.733 $Y=-6.729
C235	in#22	VSS#2	1.44521E-16	$X=0.866 $Y=-19.0085
C236	in#50	VSS#2	1.28464E-16	$X=9.0655 $Y=-4.949
C237	out#95	VSS#2	1.28464E-16	$X=19.6335 $Y=-8.509
C238	in#72	out#71	4.02632E-17	$X=14.3495 $Y=-4.95
C239	in#2	out#1	2.95192E-17	$X=2.735 $Y=-1.5025
C240	in#62	out#61	4.02632E-17	$X=10.249 $Y=-15.63
C241	in#26	VSS#2	1.28493E-16	$X=4.966 $Y=-3.1695
C242	out#75	VSS#2	1.28464E-16	$X=15.534 $Y=-8.509
C243	in#2	VSS#2	3.76261E-16	$X=0.8705 $Y=-1.25
C244	out#51	VSS#2	1.28464E-16	$X=11.435 $Y=-6.7295
C245	in#109	out#109	2.95515E-17	$X=23.25 $Y=-3.1935
C246	in#104	out#103	4.02632E-17	$X=18.4495 $Y=-15.63
C247	in#116	VSS#2	1.29184E-16	$X=21.3635 $Y=-8.5085
C248	out#27	VSS#2	1.28464E-16	$X=7.3355 $Y=-4.9495
C249	in#34	out#33	4.02632E-17	$X=6.1495 $Y=-10.29
C250	in#98	VSS#2	1.28464E-16	$X=17.264 $Y=-10.2885
C251	out#43	in#66	3.90026E-17	$X=8.3485 $Y=-19.073
C252	out#3	VSS#2	1.28918E-16	$X=3.2365 $Y=-3.17
C253	out#1	in#24	3.90026E-17	$X=4.009 $Y=-1.532
C254	in#76	VSS#2	1.28464E-16	$X=13.1645 $Y=-8.5085
C255	out#57	in#80	5.21371E-17	$X=12.2995 $Y=-12.07
C256	out#112	VSS#2	1.51552E-16	$X=23.733 $Y=-8.5085
C257	out#89	in#109	3.90026E-17	$X=19.988 $Y=-3.1935
C258	in#88	out#87	2.83343E-17	$X=14.145 $Y=-19.073
C259	in#52	VSS#2	1.28464E-16	$X=9.0655 $Y=-6.729
C260	out#107	in#122	3.90026E-17	$X=20.6485 $Y=-19.073
C261	out#79	in#100	5.21371E-17	$X=16.3995 $Y=-12.07
C262	out#97	VSS#2	1.28464E-16	$X=19.6335 $Y=-10.289
C263	in#14	out#13	4.15899E-17	$X=2.0495 $Y=-12.07
C264	out#31	in#54	5.21371E-17	$X=8.1995 $Y=-8.51
C265	in#50	out#49	4.02632E-17	$X=10.249 $Y=-4.95
C266	in#28	VSS#2	1.28464E-16	$X=4.966 $Y=-4.949
C267	in	VSS	5.40367E-19	$X=19.3235 $Y=-0.967
C268	out#109	VSS	2.48902E-17	$X=23.9085 $Y=-2.4925
C269	out#89	VSS	4.24167E-18	$X=21.594 $Y=-2.4925
C270	out#69	VSS	5.40367E-19	$X=20.1395 $Y=-2.212
C271	out#47	VSS	5.40367E-19	$X=18.2345 $Y=-2.212
C272	out#25	VSS	5.40367E-19	$X=16.33 $Y=-2.212
C273	out#3	VSS	5.40367E-19	$X=14.425 $Y=-2.212
C274	in#110	VSS	4.78204E-18	$X=23.363 $Y=-1.2085
C275	in#112	VSS	5.40367E-19	$X=19.9655 $Y=-1.086
C276	in#113	VSS	5.40367E-19	$X=20.544 $Y=-1.198
*
*
.ENDS AREG_R1
*
