*
*
*
*                       LINUX           Mon Dec  9 21:52:29 2019
*
*
*
*  PROGRAM  advgen
*
*  Name           : advgen - Quantus QRC - (64-bit)
*  Version        : 17.1.2-s041
*  Build Date     : Wed Aug 23 16:57:50 PDT 2017
*
*  HSPICE LIBRARY
*
*!LENGTH_UNITS METERS
*
*
*

*
.SUBCKT opamp2 VSS INN INP VBIAS VOUT VBAT
*
*
*  caps2d version: 10
*
*
*       TRANSISTOR CARDS
*
*
MavD44_1	avC9#6	INN#2	avC7#6	VSS#5	nel#20ivpcell#20PRIMLIB
+ L=5e-07	W=1e-06
+ AD=4.8e-13	AS=4.8e-13	PD=2.96e-06	PS=2.96e-06
+ NRD=1.730E-01	NRS=1.730E-01	wtot=1e-06
MavD44_2	avC9#8	VBIAS#4	VSS#8	VSS#5	nel#20ivpcell#20PRIMLIB
+ L=5e-07	W=2e-06
+ AD=9.6e-13	AS=9.6e-13	PD=4.96e-06	PS=4.96e-06
+ NRD=8.650E-02	NRS=8.650E-02	wtot=2e-06
MavD44_3	avC8#5	INP#2	avC9	VSS#5	nel#20ivpcell#20PRIMLIB
+ L=5e-07	W=1e-06
+ AD=4.8e-13	AS=4.8e-13	PD=2.96e-06	PS=2.96e-06
+ NRD=1.730E-01	NRS=1.730E-01	wtot=1e-06
MavD44_4	VOUT#7	VBIAS#2	VSS#2	VSS#5	nel#20ivpcell#20PRIMLIB
+ L=5e-07	W=2e-06
+ AD=9.6e-13	AS=9.6e-13	PD=4.96e-06	PS=4.96e-06
+ NRD=8.650E-02	NRS=8.650E-02	wtot=2e-06
MavD46_1	VBAT#11	avC7#10	avC7#2	VBAT#6
+ pel#20ivpcell#20PRIMLIB	L=5e-07	W=2e-06
+ AD=9.6e-13	AS=9.6e-13	PD=4.96e-06	PS=4.96e-06
+ NRD=8.650E-02	NRS=8.650E-02	wtot=2e-06
MavD46_2	avC8#2	avC7#8	VBAT#13	VBAT#6	pel#20ivpcell#20PRIMLIB
+ L=5e-07	W=2e-06
+ AD=9.6e-13	AS=9.6e-13	PD=4.96e-06	PS=4.96e-06
+ NRD=8.650E-02	NRS=8.650E-02	wtot=2e-06
MavD46_3	VOUT#2	avC8#13	VBAT#1	VBAT#6	pel#20ivpcell#20PRIMLIB
+ L=5e-07	W=4e-06
+ AD=1.92e-12	AS=1.92e-12	PD=8.96e-06	PS=8.96e-06
+ NRD=4.325E-02	NRS=4.325E-02	wtot=4e-06
*
*
*       RESISTOR AND CAP/DIODE CARDS
*
Ra9	avC8#15	avC8#24	3.711E-03	$METTP
+ $X=34.735 $Y=1.1955
Ra18	avC8#24	avC8#33	3.711E-03	$METTP
+ $X=34.735 $Y=-1.1845
Ra27	avC8#33	avC8#42	3.711E-03	$METTP
+ $X=34.735 $Y=-3.5645
Ra36	avC8#42	avC8#51	3.711E-03	$METTP
+ $X=34.735 $Y=-5.9445
Ra45	avC8#51	avC8#60	1.057E-03	$METTP
+ $X=34.735 $Y=-7.5085
Ra46	avC8#60	avC8#12	    0.8942	$METTP
+ $X=20.425 $Y=-7.815
Ra47	avC8#60	avC8#61	2.648E-03	$METTP
+ $X=34.735 $Y=-8.631
Ra56	avC8#61	avC8#70	3.711E-03	$METTP
+ $X=34.735 $Y=-10.7045
Ra65	avC8#70	avC8#79	3.711E-03	$METTP
+ $X=34.735 $Y=-13.0845
Ra74	avC8#79	avC8#88	3.711E-03	$METTP
+ $X=34.735 $Y=-15.4645
Ra82	avC8#88	avC8#14	    2.0000	$METTP
+ $X=31.165 $Y=-16.655
Ra83	avC8#14	avC8#15	    2.0000	$METTP
+ $X=37.115 $Y=2.385
Ra84	avC8#14	avC8#15	    2.0000	$METTP
+ $X=39.495 $Y=2.385
Ra85	avC8#14	avC8#15	    2.0000	$METTP
+ $X=44.255 $Y=2.385
Ra86	avC8#14	avC8#15	    2.0000	$METTP
+ $X=41.875 $Y=2.385
Ra87	avC8#14	avC8#15	    2.0000	$METTP
+ $X=34.735 $Y=2.385
Ra88	avC8#14	avC8#15	    2.0000	$METTP
+ $X=25.215 $Y=2.385
Ra89	avC8#14	avC8#15	    2.0000	$METTP
+ $X=27.595 $Y=2.385
Ra90	avC8#14	avC8#15	    2.0000	$METTP
+ $X=32.355 $Y=2.385
Ra91	avC8#14	avC8#15	    2.0000	$METTP
+ $X=29.975 $Y=2.385
Ra92	avC8#14	avC8#24	    2.0000	$METTP
+ $X=37.115 $Y=0.005
Ra93	avC8#14	avC8#24	    2.0000	$METTP
+ $X=39.495 $Y=0.005
Ra94	avC8#14	avC8#24	    2.0000	$METTP
+ $X=44.255 $Y=0.005
Ra95	avC8#14	avC8#24	    2.0000	$METTP
+ $X=41.875 $Y=0.005
Ra96	avC8#14	avC8#24	    2.0000	$METTP
+ $X=34.735 $Y=0.005
Ra97	avC8#14	avC8#24	    2.0000	$METTP
+ $X=25.215 $Y=0.005
Ra98	avC8#14	avC8#24	    2.0000	$METTP
+ $X=27.595 $Y=0.005
Ra99	avC8#14	avC8#24	    2.0000	$METTP
+ $X=32.355 $Y=0.005
Ra100	avC8#14	avC8#24	    2.0000	$METTP
+ $X=29.975 $Y=0.005
Ra101	avC8#14	avC8#33	    2.0000	$METTP
+ $X=37.115 $Y=-2.375
Ra102	avC8#14	avC8#33	    2.0000	$METTP
+ $X=39.495 $Y=-2.375
Ra103	avC8#14	avC8#33	    2.0000	$METTP
+ $X=44.255 $Y=-2.375
Ra104	avC8#14	avC8#33	    2.0000	$METTP
+ $X=41.875 $Y=-2.375
Ra105	avC8#14	avC8#33	    2.0000	$METTP
+ $X=34.735 $Y=-2.375
Ra106	avC8#14	avC8#33	    2.0000	$METTP
+ $X=25.215 $Y=-2.375
Ra107	avC8#14	avC8#33	    2.0000	$METTP
+ $X=27.595 $Y=-2.375
Ra108	avC8#14	avC8#33	    2.0000	$METTP
+ $X=32.355 $Y=-2.375
Ra109	avC8#14	avC8#33	    2.0000	$METTP
+ $X=29.975 $Y=-2.375
Ra110	avC8#14	avC8#42	    2.0000	$METTP
+ $X=37.115 $Y=-4.755
Ra111	avC8#14	avC8#42	    2.0000	$METTP
+ $X=39.495 $Y=-4.755
Ra112	avC8#14	avC8#42	    2.0000	$METTP
+ $X=44.255 $Y=-4.755
Ra113	avC8#14	avC8#42	    2.0000	$METTP
+ $X=41.875 $Y=-4.755
Ra114	avC8#14	avC8#42	    2.0000	$METTP
+ $X=34.735 $Y=-4.755
Ra115	avC8#14	avC8#42	    2.0000	$METTP
+ $X=25.215 $Y=-4.755
Ra116	avC8#14	avC8#42	    2.0000	$METTP
+ $X=27.595 $Y=-4.755
Ra117	avC8#14	avC8#42	    2.0000	$METTP
+ $X=32.355 $Y=-4.755
Ra118	avC8#14	avC8#42	    2.0000	$METTP
+ $X=29.975 $Y=-4.755
Ra119	avC8#14	avC8#51	    2.0000	$METTP
+ $X=37.115 $Y=-7.135
Ra120	avC8#14	avC8#51	    2.0000	$METTP
+ $X=39.495 $Y=-7.135
Ra121	avC8#14	avC8#51	    2.0000	$METTP
+ $X=44.255 $Y=-7.135
Ra122	avC8#14	avC8#51	    2.0000	$METTP
+ $X=41.875 $Y=-7.135
Ra123	avC8#14	avC8#51	    2.0000	$METTP
+ $X=34.735 $Y=-7.135
Ra124	avC8#14	avC8#51	    2.0000	$METTP
+ $X=25.215 $Y=-7.135
Ra125	avC8#14	avC8#51	    2.0000	$METTP
+ $X=27.595 $Y=-7.135
Ra126	avC8#14	avC8#51	    2.0000	$METTP
+ $X=32.355 $Y=-7.135
Ra127	avC8#14	avC8#51	    2.0000	$METTP
+ $X=29.975 $Y=-7.135
Ra128	avC8#14	avC8#61	    2.0000	$METTP
+ $X=37.115 $Y=-9.515
Ra129	avC8#14	avC8#61	    2.0000	$METTP
+ $X=39.495 $Y=-9.515
Ra130	avC8#14	avC8#61	    2.0000	$METTP
+ $X=44.255 $Y=-9.515
Ra131	avC8#14	avC8#61	    2.0000	$METTP
+ $X=41.875 $Y=-9.515
Ra132	avC8#14	avC8#61	    2.0000	$METTP
+ $X=34.735 $Y=-9.515
Ra133	avC8#14	avC8#61	    2.0000	$METTP
+ $X=25.215 $Y=-9.515
Ra134	avC8#14	avC8#61	    2.0000	$METTP
+ $X=27.595 $Y=-9.515
Ra135	avC8#14	avC8#61	    2.0000	$METTP
+ $X=32.355 $Y=-9.515
Ra136	avC8#14	avC8#61	    2.0000	$METTP
+ $X=29.975 $Y=-9.515
Ra137	avC8#14	avC8#70	    2.0000	$METTP
+ $X=37.115 $Y=-11.895
Ra138	avC8#14	avC8#70	    2.0000	$METTP
+ $X=39.495 $Y=-11.895
Ra139	avC8#14	avC8#70	    2.0000	$METTP
+ $X=44.255 $Y=-11.895
Ra140	avC8#14	avC8#70	    2.0000	$METTP
+ $X=41.875 $Y=-11.895
Ra141	avC8#14	avC8#70	    2.0000	$METTP
+ $X=34.735 $Y=-11.895
Ra142	avC8#14	avC8#70	    2.0000	$METTP
+ $X=25.215 $Y=-11.895
Ra143	avC8#14	avC8#70	    2.0000	$METTP
+ $X=27.595 $Y=-11.895
Ra144	avC8#14	avC8#70	    2.0000	$METTP
+ $X=32.355 $Y=-11.895
Ra145	avC8#14	avC8#70	    2.0000	$METTP
+ $X=29.975 $Y=-11.895
Ra146	avC8#14	avC8#79	    2.0000	$METTP
+ $X=37.115 $Y=-14.275
Ra147	avC8#14	avC8#79	    2.0000	$METTP
+ $X=39.495 $Y=-14.275
Ra148	avC8#14	avC8#79	    2.0000	$METTP
+ $X=44.255 $Y=-14.275
Ra149	avC8#14	avC8#79	    2.0000	$METTP
+ $X=41.875 $Y=-14.275
Ra150	avC8#14	avC8#79	    2.0000	$METTP
+ $X=34.735 $Y=-14.275
Ra151	avC8#14	avC8#79	    2.0000	$METTP
+ $X=25.215 $Y=-14.275
Ra152	avC8#14	avC8#79	    2.0000	$METTP
+ $X=27.595 $Y=-14.275
Ra153	avC8#14	avC8#79	    2.0000	$METTP
+ $X=32.355 $Y=-14.275
Ra154	avC8#14	avC8#79	    2.0000	$METTP
+ $X=29.975 $Y=-14.275
Ra155	avC8#14	avC8#88	    2.0000	$METTP
+ $X=37.115 $Y=-16.655
Ra156	avC8#14	avC8#88	    2.0000	$METTP
+ $X=39.495 $Y=-16.655
Ra157	avC8#14	avC8#88	    2.0000	$METTP
+ $X=44.255 $Y=-16.655
Ra158	avC8#14	avC8#88	    2.0000	$METTP
+ $X=41.875 $Y=-16.655
Ra159	avC8#14	avC8#88	    2.0000	$METTP
+ $X=34.735 $Y=-16.655
Ra160	avC8#14	avC8#88	    2.0000	$METTP
+ $X=25.215 $Y=-16.655
Ra161	avC8#14	avC8#88	    2.0000	$METTP
+ $X=27.595 $Y=-16.655
Ra162	avC8#14	avC8#88	    2.0000	$METTP
+ $X=32.355 $Y=-16.655
Rb1	avC8#9	avC8#12	    6.5000	$MET3	$X=15.735 $Y=-7.815
Rc2	VOUT#8	VOUT#9	    4.5000	$MET2	$X=19.54 $Y=-7.76
Rd1	INN#1	INN	    7.6272	$MET1	$X=3.048 $Y=-10.715
Rd2	VBIAS#1	VBIAS	    7.6211	$MET1	$X=3.3755 $Y=-14.775
Rd4	avC7	avC7#4	    0.8273	$MET1	$X=4.245 $Y=-4.5625
Rd5	avC7#4	avC7#5	    0.6840	$MET1	$X=4.245 $Y=-7.1925
Rd6	avC7#5	avC7#6	    3.7500	$MET1	$X=4.245 $Y=-8.77
Rd7	avC7#4	avC7#7	    7.8173	$MET1	$X=4.975 $Y=-5.905
Rd8	avC7#2	avC7	    1.8750	$MET1	$X=4.25 $Y=-2.43
Rd10	avC9#2	avC9#4	    0.9016	$MET1	$X=9.6505 $Y=-10.26
Rd11	avC9#4	avC9#5	    0.7536	$MET1	$X=6.6575 $Y=-10.26
Rd12	avC9#5	avC9#6	    3.7500	$MET1	$X=5.285 $Y=-8.77
Rd13	avC9#4	avC9#7	    0.5201	$MET1	$X=8 $Y=-11.015
Rd14	avC9#7	avC9#8	    1.8750	$MET1	$X=8 $Y=-12.56
Rd15	avC9	avC9#2	    3.7500	$MET1	$X=10.405 $Y=-8.735
Rd16	INP#1	INP	    7.5943	$MET1	$X=12.682 $Y=-10.285
Rd18	avC8	avC8#4	    1.0009	$MET1	$X=11.445 $Y=-4.9375
Rd19	avC8#4	avC8#6	    0.4951	$MET1	$X=11.445 $Y=-7.55
Rd21	avC8#4	avC8#8	    0.9872	$MET1	$X=13.6 $Y=-6.655
Rd22	avC8#8	avC8#9	    4.8367	$MET1	$X=15.7 $Y=-7.205
Rd23	avC8#8	avC8#10	    7.7572	$MET1	$X=16.215 $Y=-6.655
Rd24	avC8#2	avC8	    1.8750	$MET1	$X=11.46 $Y=-2.43
Rd25	avC8#5	avC8#6	    3.7500	$MET1	$X=11.445 $Y=-8.735
Rd27	VBAT#2	VBAT#4	    1.4934	$MET1	$X=15.958 $Y=1.41
Rd28	VBAT#4	VBAT#5	    0.1239	$MET1	$X=11.0725 $Y=1.41
Rd29	VBAT#5	VBAT#7	9.192E-02	$MET1	$X=9.833 $Y=1.41
Rd32	VBAT#7	VBAT#10	    1.1606	$MET1	$X=5.29 $Y=-0.28
Rd33	VBAT#10	VBAT#11	    1.8750	$MET1
+ $X=5.29 $Y=-2.43
Rd34	VBAT#4	VBAT	5.904E-02	$MET1	$X=12.055 $Y=2.08
Rd35	VBAT#5	VBAT#12	    0.8380	$MET1	$X=10.42 $Y=-0.28
Rd36	VBAT#12	VBAT#13	    1.8750	$MET1
+ $X=10.42 $Y=-2.43
Rd37	VBAT#1	VBAT#2	    0.9375	$MET1	$X=17.1 $Y=-3.48
Rd38	VBAT#6	VBAT#7	    7.5000	$MET1	$X=9.24 $Y=1.39
Rd39	VBAT#6	VBAT#7	    7.5000	$MET1	$X=9.24 $Y=1.39
Rd41	VSS#1	VSS#4	    1.1773	$MET1	$X=15.8555 $Y=-16.135
Rd44	VSS#4	VSS#9	    1.1778	$MET1	$X=6.96 $Y=-14.5775
Rd46	VSS#4	VSS	    0.1447	$MET1	$X=11.96 $Y=-17.5075
Rd47	VSS#2	VSS#1	    1.8750	$MET1	$X=17.095 $Y=-12.6
Rd48	VSS#5	VSS#4	    7.5000	$MET1	$X=11.955 $Y=-16.1
Rd49	VSS#5	VSS#4	    7.5000	$MET1	$X=11.955 $Y=-16.1
Rd50	VSS#8	VSS#9	    1.8750	$MET1	$X=6.96 $Y=-12.56
Rd52	VOUT#1	VOUT#4	    1.0245	$MET1	$X=18.14 $Y=-6.5145
Rd53	VOUT#4	VOUT#5	    0.4212	$MET1	$X=18.14 $Y=-8.6575
Rd54	VOUT#5	VOUT#6	    0.7238	$MET1	$X=18.14 $Y=-10.6825
Rd55	VOUT#6	VOUT#7	    1.8750	$MET1	$X=18.135 $Y=-12.6
Rd56	VOUT#4	VOUT#8	    4.7884	$MET1	$X=18.81 $Y=-7.76
Rd57	VOUT#5	VOUT	    1.4696	$MET1	$X=19.6525 $Y=-9.555
Rd58	VOUT#2	VOUT#1	    0.9375	$MET1	$X=18.14 $Y=-3.48
Re1	INN#2	INN#1	   51.8246	$POLY1	$X=4.77 $Y=-10.0075
Re2	avC7#8	avC7#9	  183.0327	$POLY1	$X=10.97 $Y=-4.105
Re3	avC7#9	avC7#10	   70.1309	$POLY1	$X=5.2375 $Y=-4.71
Re4	avC7#9	avC7#7	   20.7232	$POLY1	$X=5.76 $Y=-5.285
Re5	INP#2	INP#1	   46.9891	$POLY1	$X=10.95 $Y=-9.77
Re6	VBIAS#2	VBIAS#3	  234.6231	$POLY1
+ $X=17.635 $Y=-14.2025
Re7	VBIAS#3	VBIAS#1	   59.7031	$POLY1
+ $X=5.95 $Y=-14.785
Re8	VBIAS#3	VBIAS#4	   35.8507	$POLY1
+ $X=7.475 $Y=-14.1825
Re9	avC8#13	avC8#10	   65.4924	$POLY1
+ $X=17.635 $Y=-6.0775
*
*       CAP/DIODE CARDS
*
*
CavD66_1	avC8#14	VOUT#9	9.454E-13 
+ w=2e-05 perimeter=8e-05 l=2e-05 area=4e-10 
DavD157_1	VSS#5	VBAT#6	p_dnw#20auLvs#20PRIMLIB	2.52781e-10
+ 6.466e-05 	w=0 perimeter=6.466e-05 l=0
*
*
*       CAPACITOR CARDS
*
*
C2	VBIAS	INN	7.36338E-17	$X=1.722 $Y=-12.575
C3	INN	VSS#5	5.11038E-16	$X=1.6555 $Y=-10.6515
C4	VOUT	VBIAS#2	2.0804E-17	$X=18.9805 $Y=-12.854
C5	INP	VSS#5	4.32787E-16	$X=13.65 $Y=-10.193
C6	VBIAS	VSS#5	5.22395E-16	$X=1.816 $Y=-14.61
C7	VOUT	VSS#5	6.37273E-16	$X=21.1595 $Y=-12.315
C8	avC9	INP	1.17389E-17	$X=11.3405 $Y=-9.372
C9	avC8#12	INP#2	1.05242E-18	$X=12.2725 $Y=-8.665
C10	avC8#14	VOUT	9.66295E-17	$X=21.185 $Y=-12.312
C11	avC9#7	VBIAS#3	6.83415E-18	$X=7.8955 $Y=-12.665
C12	avC8#12	VOUT#8	1.20509E-17	$X=19.1265 $Y=-7.769
C13	avC8	avC7#8	9.46605E-17	$X=11.184 $Y=-2.9115
C14	avC8#13	VBAT#6	6.86385E-17	$X=17.555 $Y=-3.1795
C15	VBIAS#2	VSS#5	6.57158E-16	$X=17.633 $Y=-13.179
C16	VBAT#12	avC7#8	5.84508E-17	$X=10.5355 $Y=-2.0415
C17	INP#2	VSS#5	1.28512E-16	$X=10.95 $Y=-8.9025
C18	avC7#7	INN#2	2.12694E-18	$X=5.175 $Y=-7.2435
C19	avC7#8	VBAT#6	3.65977E-16	$X=10.7435 $Y=-2.405
C20	VSS#8	avC9#8	1.70864E-18	$X=7.762 $Y=-12.722
C21	VSS#4	VBIAS#2	5.82313E-17	$X=16.1375 $Y=-14.076
C22	VBAT#10	avC7#10	5.19996E-17	$X=4.9455 $Y=-1.903
C23	VBIAS#4	VSS#5	5.3212E-17	$X=7.4805 $Y=-12.456
C24	avC7#10	VBAT#6	1.17458E-16	$X=4.7875 $Y=-2.498
C25	INN#2	VSS#5	1.24153E-16	$X=4.7705 $Y=-8.9985
C26	VOUT#2	avC8#13	7.57404E-17	$X=17.796 $Y=-3.399
C27	avC8#12	VSS#5	2.29043E-16	$X=17.001 $Y=-7.8145
C28	avC8#60	VSS#5	1.66527E-16	$X=28.603 $Y=-7.934
C29	VOUT#8	VSS#5	9.51172E-17	$X=19.539 $Y=-7.76
C30	VOUT#7	VBIAS#2	5.18104E-17	$X=17.9385 $Y=-12.6695
C31	avC9#7	VBIAS#4	5.19996E-17	$X=7.7745 $Y=-12.3495
C32	INP#1	VSS#5	3.43069E-16	$X=11.909 $Y=-10.284
C33	VSS#2	VBIAS#2	1.6164E-16	$X=17.392 $Y=-13.2685
C34	VBIAS#1	VSS#5	4.11696E-16	$X=4.651 $Y=-14.7765
C35	avC8#5	INP#2	3.1829E-17	$X=11.166 $Y=-8.7455
C36	avC9#5	INN#2	4.32038E-17	$X=5.082 $Y=-9.37
C37	avC9	INP#2	3.61818E-17	$X=10.7495 $Y=-8.956
C38	INN#1	VSS#5	3.60931E-16	$X=3.8955 $Y=-10.719
C39	avC8#10	VBAT#6	3.38675E-16	$X=17.193 $Y=-6.292
C40	VBAT#4	avC7#8	3.89701E-18	$X=11.1215 $Y=-1.322
C41	avC8#12	VBAT#1	1.3517E-17	$X=17.08 $Y=-5.1545
C42	VBAT#5	avC7#8	9.0348E-18	$X=10.5705 $Y=-0.6515
C43	VSS#8	avC9#4	2.39405E-17	$X=7.7435 $Y=-11.248
C44	avC7#7	VBAT#6	2.14742E-16	$X=5.518 $Y=-5.787
C45	VSS#8	VBIAS#4	4.24288E-17	$X=7.361 $Y=-12.6635
C46	avC7#6	INN#2	3.1829E-17	$X=4.5475 $Y=-8.778
C47	avC9#4	VBIAS#4	2.16408E-17	$X=7.7285 $Y=-11.545
C48	avC8#10	VOUT#2	4.72373E-17	$X=17.4845 $Y=-5.611
C49	VBAT#12	avC8	1.03651E-16	$X=10.898 $Y=-2.474
C50	avC7#4	INN#2	9.44545E-18	$X=4.5305 $Y=-7.58
C51	avC9#5	avC7#7	1.18567E-17	$X=5.492 $Y=-7.407
C52	avC8	VBAT#6	9.34135E-17	$X=11.4345 $Y=-3.184
C53	avC9#7	VSS#5	4.1884E-17	$X=8 $Y=-12.267
C54	INN#1	avC9#5	3.45837E-17	$X=4.8525 $Y=-10.1785
C55	avC8#5	INP#1	1.03539E-17	$X=11.622 $Y=-9.2495
C56	avC9	INP#1	4.76203E-17	$X=11.1295 $Y=-9.636
C57	avC9#5	VSS#5	1.77129E-16	$X=5.471 $Y=-9.8295
C58	VSS#4	avC9#7	4.19828E-18	$X=8.34 $Y=-12.638
C59	avC8#14	VOUT#5	7.84607E-18	$X=19.6595 $Y=-9.554
C60	VOUT#7	VSS#5	7.36704E-17	$X=18.121 $Y=-12.359
C61	avC8#5	VSS#5	6.82998E-17	$X=11.43 $Y=-8.5535
C62	avC9	VSS#5	1.20985E-16	$X=10.4205 $Y=-9.043
C63	avC8#14	VSS#5	1.1228E-15	$X=28.05 $Y=-6.6715
C64	avC8#12	VOUT#4	3.80564E-17	$X=17.8805 $Y=-7.638
C65	VBIAS#1	VSS#8	3.42846E-17	$X=5.615 $Y=-14.1805
C66	avC7#6	INN#1	7.59157E-18	$X=4.1115 $Y=-9.3875
C67	VOUT#2	VBAT#6	6.49144E-17	$X=17.999 $Y=-3.684
C68	avC7#6	VSS#5	9.32998E-17	$X=4.261 $Y=-8.4905
C69	VSS#8	VBIAS#3	1.19124E-16	$X=7.231 $Y=-13.822
C70	avC7#4	VSS#5	7.892E-18	$X=4.246 $Y=-5.877
C71	avC9#4	VSS#5	2.58511E-16	$X=8.0005 $Y=-10.5515
C72	avC8#10	VOUT#4	3.51405E-17	$X=17.7865 $Y=-7.096
C73	avC8#4	VSS#5	4.10541E-17	$X=11.445 $Y=-6.243
C74	avC7#2	VBAT#10	9.62038E-17	$X=4.73 $Y=-1.8195
C75	avC8#8	VSS#5	7.06145E-18	$X=14.592 $Y=-6.655
C76	avC7#2	VBAT#6	7.30598E-17	$X=4.303 $Y=-2.6945
C77	VBIAS#3	VSS#5	9.06227E-16	$X=7.4785 $Y=-14.276
C78	VBAT#10	avC7#9	8.15181E-18	$X=5.556 $Y=-3.1115
C79	avC7#4	VBAT#6	2.01832E-16	$X=4.2665 $Y=-5.8485
C80	VOUT#4	VSS#5	1.1358E-16	$X=18.139 $Y=-7.5855
C81	VOUT#5	VSS#5	3.62728E-16	$X=19.6505 $Y=-9.5545
C82	VSS#2	VOUT#7	9.62038E-17	$X=17.7775 $Y=-12.7035
C83	avC7#9	VBAT#6	6.37288E-16	$X=5.786 $Y=-4.8805
C84	avC8#4	VBAT#6	3.3685E-16	$X=11.4315 $Y=-6.1995
C85	VSS#4	VBIAS#3	1.42535E-16	$X=8.7155 $Y=-14.914
C86	VSS#8	avC9#7	1.11283E-16	$X=7.8055 $Y=-12.47
C87	avC8#8	VBAT#6	2.18365E-16	$X=14.5715 $Y=-6.626
C88	avC9	avC8#5	5.43187E-17	$X=11.001 $Y=-8.7615
C89	avC7#6	avC9#5	4.88868E-17	$X=4.8785 $Y=-9.176
C90	avC8#8	VOUT#4	5.63828E-18	$X=16.4395 $Y=-7.14
C91	VOUT#4	VBAT#6	3.46685E-17	$X=18.108 $Y=-7.5555
C92	VBAT#2	avC8#13	8.43733E-17	$X=17.4325 $Y=-2.6915
C93	avC8#10	VBAT#2	3.36649E-17	$X=17.1975 $Y=-5.0215
C94	avC8#12	VOUT#9	7.93515E-17	$X=17.03 $Y=-7.814
C95	avC8#60	VOUT#9	2.35238E-16	$X=28.5575 $Y=-7.928
C96	VBAT#2	VOUT#2	1.96021E-16	$X=17.602 $Y=-2.738
C97	VOUT#9	VSS#5	6.30674E-15	$X=23.995 $Y=-7.254
C98	avC8#9	VSS#5	8.65729E-17	$X=15.7165 $Y=-7.72
C99	avC8#9	VOUT#4	2.02599E-17	$X=16.595 $Y=-7.6715
C100	VOUT#9	avC8#9	2.91357E-18	$X=15.722 $Y=-7.72
C101	avC8#12	VSS	1.30803E-17	$X=15.624 $Y=-10.835
C102	VOUT#2	VSS	9.21198E-19	$X=16.2235 $Y=-8.4095
C103	VOUT#7	VSS	1.02621E-18	$X=16.929 $Y=-13.62
C104	avC9#8	VSS	6.83456E-19	$X=8.391 $Y=-13.227
*
*
.ENDS opamp2
*
